stable:False satoms:21 tatoms:24 sratio:0.875
  -OEChem-08052418293D

 26 26  0     1  0  0  0  0  0999 V2000
   11.7393    0.6554   22.0492 H   0  0  0  0  0  0  0  0  0  0  0  0
   12.8472    1.6055   24.0599 H   0  0  0  0  0  0  0  0  0  0  0  0
   14.0508   -0.5429   24.7648 O   0  0  0  0  0  0  0  0  0  0  0  0
   12.9950   -0.4710   24.1487 C   0  0  0  0  0  0  0  0  0  0  0  0
   12.4501   -1.4618   23.3705 C   0  0  3  0  0  0  0  0  0  0  0  0
   12.9175   -3.1023   22.4647 H   0  0  0  0  0  0  0  0  0  0  0  0
   10.6037   -1.9664   24.1612 H   0  0  0  0  0  0  0  0  0  0  0  0
   10.2452   -0.1364   23.1185 C   0  0  1  0  0  0  0  0  0  0  0  0
   12.1288    0.7829   24.0842 C   0  0  0  0  0  0  0  0  0  0  0  0
    8.8236    0.3941   21.1927 C   0  0  0  0  0  0  0  0  0  0  0  0
    9.7281    0.1340   24.0646 H   0  0  0  0  0  0  0  0  0  0  0  0
   11.5211    0.8485   24.9860 H   0  0  0  0  0  0  0  0  0  0  0  0
    8.5349   -1.0564   22.6501 H   0  0  0  0  0  0  0  0  0  0  0  0
   13.2301   -2.3750   22.9224 O   0  0  0  0  0  0  0  0  0  0  0  0
   10.6100   -2.2968   22.0818 O   0  0  0  0  0  0  0  0  0  0  0  0
   10.9319   -1.5248   23.2023 C   0  0  1  0  0  0  0  0  0  0  0  0
   11.2291    0.8542   22.8860 N   0  3  0  0  0  0  0  0  0  0  0  0
    7.4971    0.8032   19.6007 H   0  0  0  0  0  0  0  0  0  0  0  0
    9.1463   -0.4048   22.1734 N   0  0  0  0  0  0  0  0  0  0  0  0
    9.2811    1.5383   21.0274 O   0  0  0  0  0  0  0  0  0  0  0  0
   10.9653   -1.7362   21.3088 H   0  0  0  0  0  0  0  0  0  0  0  0
    7.8487   -0.0842   20.1186 C   0  0  0  0  0  0  0  0  0  0  0  0
    8.3620   -0.7440   19.4405 H   0  0  0  0  0  0  0  0  0  0  0  0
    6.9983   -0.5921   20.5534 H   0  0  0  0  0  0  0  0  0  0  0  0
   12.5615   -0.8595   22.4568 H   0  0  0  0  0  0  0  0  0  0  0  0
   10.8090    1.7588   22.8133 H   0  0  0  0  0  0  0  0  0  0  0  0
 18 22  1  0  0  0  0
 10 20  2  0  0  0  0
 22 24  1  0  0  0  0
 22 23  1  0  0  0  0
 10 22  1  0  0  0  0
 10 19  1  0  0  0  0
 13 19  1  0  0  0  0
  8 19  1  0  0  0  0
  1 17  1  0  0  0  0
  8 17  1  0  0  0  0
  9 17  1  0  0  0  0
  8 11  1  0  0  0  0
  8 16  1  0  0  0  0
  2  9  1  0  0  0  0
  9 12  1  0  0  0  0
  4  9  1  0  0  0  0
 15 21  1  0  0  0  0
 15 16  1  0  0  0  0
  7 16  1  0  0  0  0
  5 16  1  0  0  0  0
  4  5  1  0  0  0  0
  3  4  2  0  0  0  0
  5 14  1  0  0  0  0
  6 14  1  0  0  0  0
  5 25  1  0  0  0  0
 17 26  1  0  0  0  0
M  CHG  1  17   1
M  END
> <Chemgauss4>
-5.426204

$$$$
