stable:False satoms:21 tatoms:24 sratio:0.875
  -OEChem-08052418293D

 26 26  0     1  0  0  0  0  0999 V2000
  -11.4229    0.6292  -21.9631 H   0  0  0  0  0  0  0  0  0  0  0  0
  -12.5548    1.5996  -23.9506 H   0  0  0  0  0  0  0  0  0  0  0  0
  -13.8008   -0.5302  -24.6380 O   0  0  0  0  0  0  0  0  0  0  0  0
  -12.7328   -0.4745  -24.0414 C   0  0  0  0  0  0  0  0  0  0  0  0
  -12.1872   -1.4746  -23.2759 C   0  0  3  0  0  0  0  0  0  0  0  0
  -12.6604   -3.1109  -22.3654 H   0  0  0  0  0  0  0  0  0  0  0  0
  -10.3630   -2.0025  -24.1020 H   0  0  0  0  0  0  0  0  0  0  0  0
   -9.9600   -0.1803  -23.0618 C   0  0  1  0  0  0  0  0  0  0  0  0
  -11.8484    0.7673  -23.9902 C   0  0  0  0  0  0  0  0  0  0  0  0
   -8.4957    0.3256  -21.1616 C   0  0  0  0  0  0  0  0  0  0  0  0
   -9.4569    0.0853  -24.0167 H   0  0  0  0  0  0  0  0  0  0  0  0
  -11.2567    0.8268  -24.9029 H   0  0  0  0  0  0  0  0  0  0  0  0
   -8.2541   -1.1249  -22.6275 H   0  0  0  0  0  0  0  0  0  0  0  0
  -12.9713   -2.3782  -22.8154 O   0  0  0  0  0  0  0  0  0  0  0  0
  -10.3352   -2.3382  -22.0235 O   0  0  0  0  0  0  0  0  0  0  0  0
  -10.6672   -1.5590  -23.1361 C   0  0  1  0  0  0  0  0  0  0  0  0
  -10.9257    0.8231  -22.8088 N   0  3  0  0  0  0  0  0  0  0  0  0
   -7.1343    0.7123  -19.5936 H   0  0  0  0  0  0  0  0  0  0  0  0
   -8.8476   -0.4663  -22.1379 N   0  0  0  0  0  0  0  0  0  0  0  0
   -8.9342    1.4755  -20.9851 O   0  0  0  0  0  0  0  0  0  0  0  0
  -10.6684   -1.7747  -21.2428 H   0  0  0  0  0  0  0  0  0  0  0  0
   -7.5077   -0.1689  -20.1070 C   0  0  0  0  0  0  0  0  0  0  0  0
   -8.0173   -0.8233  -19.4209 H   0  0  0  0  0  0  0  0  0  0  0  0
   -6.6726   -0.6872  -20.5587 H   0  0  0  0  0  0  0  0  0  0  0  0
  -12.2734   -0.8732  -22.3588 H   0  0  0  0  0  0  0  0  0  0  0  0
  -10.4919    1.7216  -22.7418 H   0  0  0  0  0  0  0  0  0  0  0  0
 18 22  1  0  0  0  0
 10 20  2  0  0  0  0
 22 24  1  0  0  0  0
 22 23  1  0  0  0  0
 10 22  1  0  0  0  0
 10 19  1  0  0  0  0
 13 19  1  0  0  0  0
  8 19  1  0  0  0  0
  1 17  1  0  0  0  0
  8 17  1  0  0  0  0
  9 17  1  0  0  0  0
  8 11  1  0  0  0  0
  8 16  1  0  0  0  0
  2  9  1  0  0  0  0
  9 12  1  0  0  0  0
  4  9  1  0  0  0  0
 15 21  1  0  0  0  0
 15 16  1  0  0  0  0
  7 16  1  0  0  0  0
  5 16  1  0  0  0  0
  4  5  1  0  0  0  0
  3  4  2  0  0  0  0
  5 14  1  0  0  0  0
  6 14  1  0  0  0  0
  5 25  1  0  0  0  0
 17 26  1  0  0  0  0
M  CHG  1  17   1
M  END
> <Chemgauss4>
-5.350919

$$$$
