stable:False satoms:8 tatoms:24 sratio:0.3333333333333333
  -OEChem-07092417503D

 24 25  0     1  0  0  0  0  0999 V2000
    6.6273   -4.8879   26.4671 C   0  0  0  0  0  0  0  0  0  0  0  0
    8.1762   -4.3298   26.1394 S   0  0  0  0  0  0  0  0  0  0  0  0
    9.0515   -5.4853   26.0488 O   0  0  0  0  0  0  0  0  0  0  0  0
    8.6351   -3.4433   27.1925 O   0  0  0  0  0  0  0  0  0  0  0  0
    8.1147   -3.5701   24.7088 N   0  0  0  0  0  0  0  0  0  0  0  0
    8.9489   -2.9089   24.1385 C   0  0  0  0  0  0  0  0  0  0  0  0
    9.3978   -1.9652   23.5083 C   0  0  0  0  0  0  0  0  0  0  0  0
   10.2933   -1.1315   23.2736 C   0  0  1  0  0  0  0  0  0  0  0  0
   11.0514    0.0082   24.2920 C   0  0  0  0  0  0  0  0  0  0  0  0
   12.0731    0.3262   24.2290 C   0  0  0  0  0  0  0  0  0  0  0  0
   13.1553   -0.1366   23.4403 C   0  0  0  0  0  0  0  0  0  0  0  0
   12.6798   -1.3166   22.5775 C   0  0  0  0  0  0  0  0  0  0  0  0
   11.7911   -1.7458   22.4732 C   0  0  0  0  0  0  0  0  0  0  0  0
    9.7252   -0.5195   22.3540 C   0  0  0  0  0  0  0  0  0  0  0  0
    9.0592    0.0697   21.4019 C   0  0  0  0  0  0  0  0  0  0  0  0
    9.5489    1.0328   21.0369 O   0  0  0  0  0  0  0  0  0  0  0  0
    7.9525   -0.5525   21.0925 N   0  0  0  0  0  0  0  0  0  0  0  0
    7.1828   -0.0957   20.1540 C   0  0  0  0  0  0  0  0  0  0  0  0
    7.2472   -0.0249   18.8475 C   0  0  0  0  0  0  0  0  0  0  0  0
    6.7730    0.3102   17.7637 N   0  0  0  0  0  0  0  0  0  0  0  0
    5.6565    0.8772   18.2299 C   0  0  0  0  0  0  0  0  0  0  0  0
    5.2717    0.9561   19.3840 C   0  0  0  0  0  0  0  0  0  0  0  0
    5.8486    0.5678   20.5211 C   0  0  0  0  0  0  0  0  0  0  0  0
    5.3230    0.6754   22.0222 C   0  0  0  0  0  0  0  0  0  0  0  0
 20 21  2  0  0  0  0
 19 20  1  0  0  0  0
 21 22  1  0  0  0  0
 18 19  2  0  0  0  0
 22 23  2  0  0  0  0
 18 23  1  0  0  0  0
 17 18  1  0  0  0  0
 23 24  1  0  0  0  0
 15 16  2  0  0  0  0
 15 17  1  0  0  0  0
 14 15  1  0  0  0  0
  8 14  1  0  0  0  0
 12 13  1  0  0  0  0
  8 13  1  0  0  0  0
 11 12  2  0  0  0  0
  7  8  1  0  0  0  0
  8  9  1  0  0  0  0
 10 11  1  0  0  0  0
  6  7  2  3  0  0  0
  5  6  1  0  0  0  0
  9 10  2  0  0  0  0
  2  5  1  0  0  0  0
  2  3  2  0  0  0  0
  1  2  1  0  0  0  0
  2  4  2  0  0  0  0
M  END
> <Shapegauss>
-285.744659

$$$$
