MODEL 1
REMARK VINA RESULT:    -7.472      0.000      0.000
REMARK INTER + INTRA:         -11.185
REMARK INTER:                 -10.092
REMARK INTRA:                  -1.092
REMARK UNBOUND:                -1.092
REMARK  6 active torsions:
REMARK  status: ('A' for Active; 'I' for Inactive)
REMARK    1  A    between atoms: S_2  and  N_5 
REMARK    2  A    between atoms: C_7  and  C_8 
REMARK    3  A    between atoms: C_8  and  C_9 
REMARK    4  A    between atoms: C_9  and  C_15 
REMARK    5  A    between atoms: C_15  and  C_16 
REMARK       I    between atoms: C_16  and  N_18 
REMARK    6  A    between atoms: N_18  and  C_20 
ROOT
HETATM    1  C   UNL     1       9.529  -1.646  23.246  1.00  0.00     0.075 C 
HETATM    2  C   UNL     1       9.464  -0.531  24.535  1.00  0.00    -0.000 C 
HETATM    3  C   UNL     1      10.255   0.126  24.839  1.00  0.00    -0.025 C 
HETATM    4  C   UNL     1      11.608   0.222  24.428  1.00  0.00     0.054 C 
HETATM    5  C   UNL     1      11.893  -0.864  23.378  1.00  0.00    -0.025 C 
HETATM    6  C   UNL     1      11.309  -1.544  22.953  1.00  0.00    -0.000 C 
ENDROOT
BRANCH   1   7
HETATM    7  C   UNL     1       9.000  -2.765  23.110  1.00  0.00     0.021 C 
BRANCH   7   8
HETATM    8  C   UNL     1       8.022  -3.477  22.939  1.00  0.00     0.098 C 
HETATM    9  N   UNL     1       7.394  -4.426  22.536  1.00  0.00    -0.296 N 
ATOM     10  HN  UNL     1       7.852  -5.328  22.666  1.00  0.00     0.177 HD
BRANCH   9  11
HETATM   11  S   UNL     1       5.941  -4.496  21.822  1.00  0.00     0.226 S 
HETATM   12  C   UNL     1       4.836  -4.962  22.997  1.00  0.00     0.186 C 
HETATM   13  O   UNL     1       5.557  -3.177  21.351  1.00  0.00    -0.206 OA
HETATM   14  O   UNL     1       5.939  -5.435  20.715  1.00  0.00    -0.206 OA
ENDBRANCH   9  11
ENDBRANCH   7   8
ENDBRANCH   1   7
BRANCH   1  15
HETATM   15  C   UNL     1       9.055  -1.104  22.234  1.00  0.00    -0.061 C 
BRANCH  15  16
HETATM   16  C   UNL     1       8.540  -0.466  21.222  1.00  0.00     0.290 C 
HETATM   17  O   UNL     1       9.292   0.196  20.675  1.00  0.00    -0.259 OA
HETATM   18  N   UNL     1       7.262  -0.693  21.071  1.00  0.00    -0.315 N 
ATOM     19  HN  UNL     1       6.777  -1.311  21.722  1.00  0.00     0.170 HD
BRANCH  18  20
HETATM   20  C   UNL     1       6.607  -0.139  20.099  1.00  0.00     0.057 A 
HETATM   21  C   UNL     1       6.286  -0.480  18.877  1.00  0.00     0.117 A 
HETATM   22  N   UNL     1       5.752  -0.235  17.796  1.00  0.00    -0.373 N 
HETATM   23  C   UNL     1       5.324   0.996  18.088  1.00  0.00     0.088 A 
ATOM     24  HN  UNL     1       5.664  -0.795  16.947  1.00  0.00     0.164 HD
HETATM   25  C   UNL     1       5.426   1.604  19.140  1.00  0.00     0.026 A 
HETATM   26  C   UNL     1       6.029   1.271  20.281  1.00  0.00    -0.033 A 
HETATM   27  C   UNL     1       6.144   2.081  21.650  1.00  0.00     0.050 C 
ENDBRANCH  18  20
ENDBRANCH  15  16
ENDBRANCH   1  15
TORSDOF 6
ENDMDL
MODEL 2
REMARK VINA RESULT:    -7.132      2.741      5.852
REMARK INTER + INTRA:         -10.726
REMARK INTER:                  -9.818
REMARK INTRA:                  -0.909
REMARK UNBOUND:                -1.092
REMARK  6 active torsions:
REMARK  status: ('A' for Active; 'I' for Inactive)
REMARK    1  A    between atoms: S_2  and  N_5 
REMARK    2  A    between atoms: C_7  and  C_8 
REMARK    3  A    between atoms: C_8  and  C_9 
REMARK    4  A    between atoms: C_9  and  C_15 
REMARK    5  A    between atoms: C_15  and  C_16 
REMARK       I    between atoms: C_16  and  N_18 
REMARK    6  A    between atoms: N_18  and  C_20 
ROOT
HETATM    1  C   UNL     1      10.313  -0.720  23.225  1.00  0.00     0.075 C 
HETATM    2  C   UNL     1      11.691  -1.646  22.834  1.00  0.00    -0.000 C 
HETATM    3  C   UNL     1      12.666  -1.536  23.265  1.00  0.00    -0.025 C 
HETATM    4  C   UNL     1      13.199  -0.565  24.149  1.00  0.00     0.054 C 
HETATM    5  C   UNL     1      12.116   0.478  24.463  1.00  0.00    -0.025 C 
HETATM    6  C   UNL     1      11.164   0.549  24.190  1.00  0.00    -0.000 C 
ENDROOT
BRANCH   1   7
HETATM    7  C   UNL     1       9.357  -0.344  22.521  1.00  0.00     0.021 C 
BRANCH   7   8
HETATM    8  C   UNL     1       8.677  -0.413  21.510  1.00  0.00     0.098 C 
HETATM    9  N   UNL     1       8.376  -0.221  20.356  1.00  0.00    -0.296 N 
ATOM     10  HN  UNL     1       9.132  -0.367  19.687  1.00  0.00     0.177 HD
BRANCH   9  11
HETATM   11  S   UNL     1       6.965   0.230  19.701  1.00  0.00     0.226 S 
HETATM   12  C   UNL     1       6.297   1.388  20.718  1.00  0.00     0.186 C 
HETATM   13  O   UNL     1       7.195   0.855  18.411  1.00  0.00    -0.206 OA
HETATM   14  O   UNL     1       6.065  -0.899  19.549  1.00  0.00    -0.206 OA
ENDBRANCH   9  11
ENDBRANCH   7   8
ENDBRANCH   1   7
BRANCH   1  15
HETATM   15  C   UNL     1       9.663  -1.329  24.092  1.00  0.00    -0.061 C 
BRANCH  15  16
HETATM   16  C   UNL     1       9.007  -2.043  24.961  1.00  0.00     0.290 C 
HETATM   17  O   UNL     1       8.814  -1.495  25.942  1.00  0.00    -0.259 OA
HETATM   18  N   UNL     1       8.742  -3.250  24.534  1.00  0.00    -0.315 N 
ATOM     19  HN  UNL     1       9.056  -3.541  23.608  1.00  0.00     0.170 HD
BRANCH  18  20
HETATM   20  C   UNL     1       8.083  -4.080  25.281  1.00  0.00     0.057 A 
HETATM   21  C   UNL     1       8.396  -4.959  26.200  1.00  0.00     0.117 A 
HETATM   22  N   UNL     1       8.079  -5.828  27.011  1.00  0.00    -0.373 N 
HETATM   23  C   UNL     1       6.765  -5.817  26.772  1.00  0.00     0.088 A 
ATOM     24  HN  UNL     1       8.641  -6.380  27.659  1.00  0.00     0.164 HD
HETATM   25  C   UNL     1       6.139  -5.104  26.006  1.00  0.00     0.026 A 
HETATM   26  C   UNL     1       6.557  -4.176  25.146  1.00  0.00    -0.033 A 
HETATM   27  C   UNL     1       5.719  -3.248  24.157  1.00  0.00     0.050 C 
ENDBRANCH  18  20
ENDBRANCH  15  16
ENDBRANCH   1  15
TORSDOF 6
ENDMDL
MODEL 3
REMARK VINA RESULT:    -6.917      4.197      6.365
REMARK INTER + INTRA:         -10.435
REMARK INTER:                  -9.845
REMARK INTRA:                  -0.590
REMARK UNBOUND:                -1.092
REMARK  6 active torsions:
REMARK  status: ('A' for Active; 'I' for Inactive)
REMARK    1  A    between atoms: S_2  and  N_5 
REMARK    2  A    between atoms: C_7  and  C_8 
REMARK    3  A    between atoms: C_8  and  C_9 
REMARK    4  A    between atoms: C_9  and  C_15 
REMARK    5  A    between atoms: C_15  and  C_16 
REMARK       I    between atoms: C_16  and  N_18 
REMARK    6  A    between atoms: N_18  and  C_20 
ROOT
HETATM    1  C   UNL     1       7.451  -4.869  24.142  1.00  0.00     0.075 C 
HETATM    2  C   UNL     1       7.659  -5.922  22.816  1.00  0.00    -0.000 C 
HETATM    3  C   UNL     1       6.976  -6.049  22.000  1.00  0.00    -0.025 C 
HETATM    4  C   UNL     1       5.668  -5.549  21.783  1.00  0.00     0.054 C 
HETATM    5  C   UNL     1       5.240  -4.712  22.998  1.00  0.00    -0.025 C 
HETATM    6  C   UNL     1       5.719  -4.459  23.830  1.00  0.00    -0.000 C 
ENDROOT
BRANCH   1   7
HETATM    7  C   UNL     1       7.797  -4.979  25.333  1.00  0.00     0.021 C 
BRANCH   7   8
HETATM    8  C   UNL     1       7.559  -5.257  26.498  1.00  0.00     0.098 C 
HETATM    9  N   UNL     1       7.519  -5.939  27.493  1.00  0.00    -0.296 N 
ATOM     10  HN  UNL     1       8.375  -6.455  27.693  1.00  0.00     0.177 HD
BRANCH   9  11
HETATM   11  S   UNL     1       6.322  -6.166  28.562  1.00  0.00     0.226 S 
HETATM   12  C   UNL     1       4.876  -5.981  27.729  1.00  0.00     0.186 C 
HETATM   13  O   UNL     1       6.366  -7.525  29.073  1.00  0.00    -0.206 OA
HETATM   14  O   UNL     1       6.406  -5.222  29.661  1.00  0.00    -0.206 OA
ENDBRANCH   9  11
ENDBRANCH   7   8
ENDBRANCH   1   7
BRANCH   1  15
HETATM   15  C   UNL     1       8.032  -3.800  23.890  1.00  0.00    -0.061 C 
BRANCH  15  16
HETATM   16  C   UNL     1       8.709  -2.727  23.593  1.00  0.00     0.290 C 
HETATM   17  O   UNL     1       8.617  -2.423  22.498  1.00  0.00    -0.259 OA
HETATM   18  N   UNL     1       9.378  -2.249  24.609  1.00  0.00    -0.315 N 
ATOM     19  HN  UNL     1       9.337  -2.723  25.512  1.00  0.00     0.170 HD
BRANCH  18  20
HETATM   20  C   UNL     1      10.093  -1.175  24.477  1.00  0.00     0.057 A 
HETATM   21  C   UNL     1      11.298  -0.905  24.044  1.00  0.00     0.117 A 
HETATM   22  N   UNL     1      12.205  -0.107  23.814  1.00  0.00    -0.373 N 
HETATM   23  C   UNL     1      11.586   0.992  24.253  1.00  0.00     0.088 A 
ATOM     24  HN  UNL     1      13.134  -0.241  23.414  1.00  0.00     0.164 HD
HETATM   25  C   UNL     1      10.452   1.100  24.688  1.00  0.00     0.026 A 
HETATM   26  C   UNL     1       9.517   0.178  24.915  1.00  0.00    -0.033 A 
HETATM   27  C   UNL     1       8.036   0.343  25.480  1.00  0.00     0.050 C 
ENDBRANCH  18  20
ENDBRANCH  15  16
ENDBRANCH   1  15
TORSDOF 6
ENDMDL
MODEL 4
REMARK VINA RESULT:    -6.524     14.719     16.189
REMARK INTER + INTRA:          -9.904
REMARK INTER:                  -9.066
REMARK INTRA:                  -0.839
REMARK UNBOUND:                -1.092
REMARK  6 active torsions:
REMARK  status: ('A' for Active; 'I' for Inactive)
REMARK    1  A    between atoms: S_2  and  N_5 
REMARK    2  A    between atoms: C_7  and  C_8 
REMARK    3  A    between atoms: C_8  and  C_9 
REMARK    4  A    between atoms: C_9  and  C_15 
REMARK    5  A    between atoms: C_15  and  C_16 
REMARK       I    between atoms: C_16  and  N_18 
REMARK    6  A    between atoms: N_18  and  C_20 
ROOT
HETATM    1  C   UNL     1      23.254  -1.838  23.553  1.00  0.00     0.075 C 
HETATM    2  C   UNL     1      21.767  -1.548  24.335  1.00  0.00    -0.000 C 
HETATM    3  C   UNL     1      21.428  -0.604  24.713  1.00  0.00    -0.025 C 
HETATM    4  C   UNL     1      22.081   0.647  24.839  1.00  0.00     0.054 C 
HETATM    5  C   UNL     1      23.528   0.512  24.341  1.00  0.00    -0.025 C 
HETATM    6  C   UNL     1      24.024  -0.251  23.943  1.00  0.00    -0.000 C 
ENDROOT
BRANCH   1   7
HETATM    7  C   UNL     1      23.996  -2.838  23.557  1.00  0.00     0.021 C 
BRANCH   7   8
HETATM    8  C   UNL     1      24.256  -3.980  23.902  1.00  0.00     0.098 C 
HETATM    9  N   UNL     1      24.132  -5.179  23.963  1.00  0.00    -0.296 N 
ATOM     10  HN  UNL     1      23.968  -5.639  23.067  1.00  0.00     0.177 HD
BRANCH   9  11
HETATM   11  S   UNL     1      24.183  -6.176  25.240  1.00  0.00     0.226 S 
HETATM   12  C   UNL     1      25.759  -6.155  25.819  1.00  0.00     0.186 C 
HETATM   13  O   UNL     1      23.318  -5.675  26.294  1.00  0.00    -0.206 OA
HETATM   14  O   UNL     1      23.788  -7.524  24.877  1.00  0.00    -0.206 OA
ENDBRANCH   9  11
ENDBRANCH   7   8
ENDBRANCH   1   7
BRANCH   1  15
HETATM   15  C   UNL     1      23.075  -1.758  22.326  1.00  0.00    -0.061 C 
BRANCH  15  16
HETATM   16  C   UNL     1      22.804  -1.703  21.053  1.00  0.00     0.290 C 
HETATM   17  O   UNL     1      21.702  -1.877  20.818  1.00  0.00    -0.259 OA
HETATM   18  N   UNL     1      23.862  -1.493  20.314  1.00  0.00    -0.315 N 
ATOM     19  HN  UNL     1      24.778  -1.402  20.755  1.00  0.00     0.170 HD
BRANCH  18  20
HETATM   20  C   UNL     1      23.755  -1.400  19.026  1.00  0.00     0.057 A 
HETATM   21  C   UNL     1      23.421  -0.455  18.183  1.00  0.00     0.117 A 
HETATM   22  N   UNL     1      23.219  -0.057  17.037  1.00  0.00    -0.373 N 
HETATM   23  C   UNL     1      23.477  -1.205  16.406  1.00  0.00     0.088 A 
ATOM     24  HN  UNL     1      22.943   0.859  16.682  1.00  0.00     0.164 HD
HETATM   25  C   UNL     1      23.842  -2.266  16.882  1.00  0.00     0.026 A 
HETATM   26  C   UNL     1      24.039  -2.628  18.150  1.00  0.00    -0.033 A 
HETATM   27  C   UNL     1      24.526  -4.022  18.751  1.00  0.00     0.050 C 
ENDBRANCH  18  20
ENDBRANCH  15  16
ENDBRANCH   1  15
TORSDOF 6
ENDMDL
MODEL 5
REMARK VINA RESULT:    -6.284      3.804      5.746
REMARK INTER + INTRA:          -9.581
REMARK INTER:                  -8.646
REMARK INTRA:                  -0.935
REMARK UNBOUND:                -1.092
REMARK  6 active torsions:
REMARK  status: ('A' for Active; 'I' for Inactive)
REMARK    1  A    between atoms: S_2  and  N_5 
REMARK    2  A    between atoms: C_7  and  C_8 
REMARK    3  A    between atoms: C_8  and  C_9 
REMARK    4  A    between atoms: C_9  and  C_15 
REMARK    5  A    between atoms: C_15  and  C_16 
REMARK       I    between atoms: C_16  and  N_18 
REMARK    6  A    between atoms: N_18  and  C_20 
ROOT
HETATM    1  C   UNL     1       9.399   1.914  24.105  1.00  0.00     0.075 C 
HETATM    2  C   UNL     1      11.017   1.850  23.569  1.00  0.00    -0.000 C 
HETATM    3  C   UNL     1      11.724   1.077  23.795  1.00  0.00    -0.025 C 
HETATM    4  C   UNL     1      11.656  -0.033  24.674  1.00  0.00     0.054 C 
HETATM    5  C   UNL     1      10.299  -0.020  25.396  1.00  0.00    -0.025 C 
HETATM    6  C   UNL     1       9.513   0.582  25.320  1.00  0.00    -0.000 C 
ENDROOT
BRANCH   1   7
HETATM    7  C   UNL     1       8.676   2.884  24.401  1.00  0.00     0.021 C 
BRANCH   7   8
HETATM    8  C   UNL     1       8.224   3.995  24.173  1.00  0.00     0.098 C 
HETATM    9  N   UNL     1       7.517   4.823  23.651  1.00  0.00    -0.296 N 
ATOM     10  HN  UNL     1       6.533   4.565  23.586  1.00  0.00     0.177 HD
BRANCH   9  11
HETATM   11  S   UNL     1       7.882   6.278  23.038  1.00  0.00     0.226 S 
HETATM   12  C   UNL     1       7.174   7.426  24.038  1.00  0.00     0.186 C 
HETATM   13  O   UNL     1       9.319   6.485  23.075  1.00  0.00    -0.206 OA
HETATM   14  O   UNL     1       7.398   6.416  21.676  1.00  0.00    -0.206 OA
ENDBRANCH   9  11
ENDBRANCH   7   8
ENDBRANCH   1   7
BRANCH   1  15
HETATM   15  C   UNL     1       8.674   1.418  23.226  1.00  0.00    -0.061 C 
BRANCH  15  16
HETATM   16  C   UNL     1       7.859   0.873  22.369  1.00  0.00     0.290 C 
HETATM   17  O   UNL     1       7.373  -0.084  22.753  1.00  0.00    -0.259 OA
HETATM   18  N   UNL     1       7.799   1.523  21.236  1.00  0.00    -0.315 N 
ATOM     19  HN  UNL     1       8.369   2.359  21.101  1.00  0.00     0.170 HD
BRANCH  18  20
HETATM   20  C   UNL     1       7.021   1.112  20.284  1.00  0.00     0.057 A 
HETATM   21  C   UNL     1       7.149   0.314  19.254  1.00  0.00     0.117 A 
HETATM   22  N   UNL     1       6.691  -0.233  18.253  1.00  0.00    -0.373 N 
HETATM   23  C   UNL     1       5.470   0.307  18.304  1.00  0.00     0.088 A 
ATOM     24  HN  UNL     1       7.109  -0.890  17.593  1.00  0.00     0.164 HD
HETATM   25  C   UNL     1       5.010   1.062  19.142  1.00  0.00     0.026 A 
HETATM   26  C   UNL     1       5.576   1.622  20.211  1.00  0.00    -0.033 A 
HETATM   27  C   UNL     1       4.952   2.604  21.301  1.00  0.00     0.050 C 
ENDBRANCH  18  20
ENDBRANCH  15  16
ENDBRANCH   1  15
TORSDOF 6
ENDMDL
MODEL 6
REMARK VINA RESULT:    -6.232      1.823      2.029
REMARK INTER + INTRA:          -9.511
REMARK INTER:                  -8.665
REMARK INTRA:                  -0.846
REMARK UNBOUND:                -1.092
REMARK  6 active torsions:
REMARK  status: ('A' for Active; 'I' for Inactive)
REMARK    1  A    between atoms: S_2  and  N_5 
REMARK    2  A    between atoms: C_7  and  C_8 
REMARK    3  A    between atoms: C_8  and  C_9 
REMARK    4  A    between atoms: C_9  and  C_15 
REMARK    5  A    between atoms: C_15  and  C_16 
REMARK       I    between atoms: C_16  and  N_18 
REMARK    6  A    between atoms: N_18  and  C_20 
ROOT
HETATM    1  C   UNL     1       9.363  -1.882  23.971  1.00  0.00     0.075 C 
HETATM    2  C   UNL     1       9.638  -0.718  25.187  1.00  0.00    -0.000 C 
HETATM    3  C   UNL     1      10.367   0.067  25.152  1.00  0.00    -0.025 C 
HETATM    4  C   UNL     1      11.408   0.344  24.231  1.00  0.00     0.054 C 
HETATM    5  C   UNL     1      11.421  -0.743  23.145  1.00  0.00    -0.025 C 
HETATM    6  C   UNL     1      10.835  -1.528  22.985  1.00  0.00    -0.000 C 
ENDROOT
BRANCH   1   7
HETATM    7  C   UNL     1       9.013  -3.075  24.049  1.00  0.00     0.021 C 
BRANCH   7   8
HETATM    8  C   UNL     1       8.244  -3.946  24.426  1.00  0.00     0.098 C 
HETATM    9  N   UNL     1       7.546  -4.927  24.340  1.00  0.00    -0.296 N 
ATOM     10  HN  UNL     1       7.972  -5.714  23.850  1.00  0.00     0.177 HD
BRANCH   9  11
HETATM   11  S   UNL     1       6.040  -5.194  24.877  1.00  0.00     0.226 S 
HETATM   12  C   UNL     1       5.231  -6.039  23.673  1.00  0.00     0.186 C 
HETATM   13  O   UNL     1       6.078  -6.036  26.059  1.00  0.00    -0.206 OA
HETATM   14  O   UNL     1       5.356  -3.950  25.178  1.00  0.00    -0.206 OA
ENDBRANCH   9  11
ENDBRANCH   7   8
ENDBRANCH   1   7
BRANCH   1  15
HETATM   15  C   UNL     1       8.443  -1.478  23.241  1.00  0.00    -0.061 C 
BRANCH  15  16
HETATM   16  C   UNL     1       7.421  -1.085  22.535  1.00  0.00     0.290 C 
HETATM   17  O   UNL     1       6.418  -1.342  23.011  1.00  0.00    -0.259 OA
HETATM   18  N   UNL     1       7.766  -0.510  21.413  1.00  0.00    -0.315 N 
ATOM     19  HN  UNL     1       8.754  -0.421  21.172  1.00  0.00     0.170 HD
BRANCH  18  20
HETATM   20  C   UNL     1       6.862  -0.053  20.604  1.00  0.00     0.057 A 
HETATM   21  C   UNL     1       6.206  -0.526  19.574  1.00  0.00     0.117 A 
HETATM   22  N   UNL     1       5.388  -0.393  18.666  1.00  0.00    -0.373 N 
HETATM   23  C   UNL     1       5.060   0.878  18.912  1.00  0.00     0.088 A 
ATOM     24  HN  UNL     1       5.062  -1.046  17.953  1.00  0.00     0.164 HD
HETATM   25  C   UNL     1       5.456   1.603  19.809  1.00  0.00     0.026 A 
HETATM   26  C   UNL     1       6.358   1.388  20.766  1.00  0.00    -0.033 A 
HETATM   27  C   UNL     1       6.857   2.350  21.935  1.00  0.00     0.050 C 
ENDBRANCH  18  20
ENDBRANCH  15  16
ENDBRANCH   1  15
TORSDOF 6
ENDMDL
MODEL 7
REMARK VINA RESULT:    -6.212      2.611      6.352
REMARK INTER + INTRA:          -9.483
REMARK INTER:                  -8.546
REMARK INTRA:                  -0.938
REMARK UNBOUND:                -1.092
REMARK  6 active torsions:
REMARK  status: ('A' for Active; 'I' for Inactive)
REMARK    1  A    between atoms: S_2  and  N_5 
REMARK    2  A    between atoms: C_7  and  C_8 
REMARK    3  A    between atoms: C_8  and  C_9 
REMARK    4  A    between atoms: C_9  and  C_15 
REMARK    5  A    between atoms: C_15  and  C_16 
REMARK       I    between atoms: C_16  and  N_18 
REMARK    6  A    between atoms: N_18  and  C_20 
ROOT
HETATM    1  C   UNL     1       7.272   0.376  20.644  1.00  0.00     0.075 C 
HETATM    2  C   UNL     1       6.119   1.595  20.944  1.00  0.00    -0.000 C 
HETATM    3  C   UNL     1       5.328   1.890  20.283  1.00  0.00    -0.025 C 
HETATM    4  C   UNL     1       5.033   1.522  18.947  1.00  0.00     0.054 C 
HETATM    5  C   UNL     1       6.109   0.546  18.445  1.00  0.00    -0.025 C 
HETATM    6  C   UNL     1       6.896   0.139  18.893  1.00  0.00    -0.000 C 
ENDROOT
BRANCH   1   7
HETATM    7  C   UNL     1       8.468   0.284  20.979  1.00  0.00     0.021 C 
BRANCH   7   8
HETATM    8  C   UNL     1       9.368   0.419  21.794  1.00  0.00     0.098 C 
HETATM    9  N   UNL     1      10.504   0.484  22.195  1.00  0.00    -0.296 N 
ATOM     10  HN  UNL     1      11.128   1.053  21.623  1.00  0.00     0.177 HD
BRANCH   9  11
HETATM   11  S   UNL     1      11.198  -0.190  23.496  1.00  0.00     0.226 S 
HETATM   12  C   UNL     1      12.002  -1.566  22.969  1.00  0.00     0.186 C 
HETATM   13  O   UNL     1      12.188   0.715  24.053  1.00  0.00    -0.206 OA
HETATM   14  O   UNL     1      10.213  -0.527  24.507  1.00  0.00    -0.206 OA
ENDBRANCH   9  11
ENDBRANCH   7   8
ENDBRANCH   1   7
BRANCH   1  15
HETATM   15  C   UNL     1       6.866  -0.683  21.153  1.00  0.00    -0.061 C 
BRANCH  15  16
HETATM   16  C   UNL     1       6.360  -1.756  21.691  1.00  0.00     0.290 C 
HETATM   17  O   UNL     1       5.917  -2.477  20.927  1.00  0.00    -0.259 OA
HETATM   18  N   UNL     1       6.438  -1.759  22.995  1.00  0.00    -0.315 N 
ATOM     19  HN  UNL     1       6.856  -0.964  23.480  1.00  0.00     0.170 HD
BRANCH  18  20
HETATM   20  C   UNL     1       5.988  -2.765  23.677  1.00  0.00     0.057 A 
HETATM   21  C   UNL     1       4.805  -3.182  24.055  1.00  0.00     0.117 A 
HETATM   22  N   UNL     1       4.085  -3.984  24.648  1.00  0.00    -0.373 N 
HETATM   23  C   UNL     1       5.054  -4.778  25.111  1.00  0.00     0.088 A 
ATOM     24  HN  UNL     1       3.071  -4.028  24.752  1.00  0.00     0.164 HD
HETATM   25  C   UNL     1       6.256  -4.697  24.922  1.00  0.00     0.026 A 
HETATM   26  C   UNL     1       6.972  -3.786  24.264  1.00  0.00    -0.033 A 
HETATM   27  C   UNL     1       8.546  -3.704  24.022  1.00  0.00     0.050 C 
ENDBRANCH  18  20
ENDBRANCH  15  16
ENDBRANCH   1  15
TORSDOF 6
ENDMDL
MODEL 8
REMARK VINA RESULT:    -6.128      5.900      8.204
REMARK INTER + INTRA:          -9.370
REMARK INTER:                  -8.477
REMARK INTRA:                  -0.892
REMARK UNBOUND:                -1.092
REMARK  6 active torsions:
REMARK  status: ('A' for Active; 'I' for Inactive)
REMARK    1  A    between atoms: S_2  and  N_5 
REMARK    2  A    between atoms: C_7  and  C_8 
REMARK    3  A    between atoms: C_8  and  C_9 
REMARK    4  A    between atoms: C_9  and  C_15 
REMARK    5  A    between atoms: C_15  and  C_16 
REMARK       I    between atoms: C_16  and  N_18 
REMARK    6  A    between atoms: N_18  and  C_20 
ROOT
HETATM    1  C   UNL     1       5.892  -5.309  24.123  1.00  0.00     0.075 C 
HETATM    2  C   UNL     1       5.356  -3.775  23.607  1.00  0.00    -0.000 C 
HETATM    3  C   UNL     1       5.383  -3.404  22.602  1.00  0.00    -0.025 C 
HETATM    4  C   UNL     1       5.959  -3.932  21.420  1.00  0.00     0.054 C 
HETATM    5  C   UNL     1       6.664  -5.256  21.752  1.00  0.00    -0.025 C 
HETATM    6  C   UNL     1       6.739  -5.774  22.596  1.00  0.00    -0.000 C 
ENDROOT
BRANCH   1   7
HETATM    7  C   UNL     1       6.420  -5.672  25.191  1.00  0.00     0.021 C 
BRANCH   7   8
HETATM    8  C   UNL     1       6.474  -5.686  26.411  1.00  0.00     0.098 C 
HETATM    9  N   UNL     1       6.873  -6.012  27.503  1.00  0.00    -0.296 N 
ATOM     10  HN  UNL     1       7.888  -6.034  27.599  1.00  0.00     0.177 HD
BRANCH   9  11
HETATM   11  S   UNL     1       6.054  -6.420  28.840  1.00  0.00     0.226 S 
HETATM   12  C   UNL     1       4.420  -6.336  28.462  1.00  0.00     0.186 C 
HETATM   13  O   UNL     1       6.353  -7.794  29.204  1.00  0.00    -0.206 OA
HETATM   14  O   UNL     1       6.370  -5.536  29.946  1.00  0.00    -0.206 OA
ENDBRANCH   9  11
ENDBRANCH   7   8
ENDBRANCH   1   7
BRANCH   1  15
HETATM   15  C   UNL     1       4.919  -6.081  24.138  1.00  0.00    -0.061 C 
BRANCH  15  16
HETATM   16  C   UNL     1       3.846  -6.821  24.134  1.00  0.00     0.290 C 
HETATM   17  O   UNL     1       3.873  -7.659  24.906  1.00  0.00    -0.259 OA
HETATM   18  N   UNL     1       2.983  -6.463  23.220  1.00  0.00    -0.315 N 
ATOM     19  HN  UNL     1       3.197  -5.682  22.599  1.00  0.00     0.170 HD
BRANCH  18  20
HETATM   20  C   UNL     1       1.858  -7.096  23.096  1.00  0.00     0.057 A 
HETATM   21  C   UNL     1       1.455  -8.167  22.461  1.00  0.00     0.117 A 
HETATM   22  N   UNL     1       0.571  -8.960  22.141  1.00  0.00    -0.373 N 
HETATM   23  C   UNL     1      -0.436  -8.367  22.787  1.00  0.00     0.088 A 
ATOM     24  HN  UNL     1       0.599  -9.803  21.566  1.00  0.00     0.164 HD
HETATM   25  C   UNL     1      -0.403  -7.375  23.495  1.00  0.00     0.026 A 
HETATM   26  C   UNL     1       0.604  -6.556  23.796  1.00  0.00    -0.033 A 
HETATM   27  C   UNL     1       0.626  -5.266  24.732  1.00  0.00     0.050 C 
ENDBRANCH  18  20
ENDBRANCH  15  16
ENDBRANCH   1  15
TORSDOF 6
ENDMDL
MODEL 9
REMARK VINA RESULT:    -5.863     22.576     25.828
REMARK INTER + INTRA:          -9.012
REMARK INTER:                  -8.208
REMARK INTRA:                  -0.804
REMARK UNBOUND:                -1.092
REMARK  6 active torsions:
REMARK  status: ('A' for Active; 'I' for Inactive)
REMARK    1  A    between atoms: S_2  and  N_5 
REMARK    2  A    between atoms: C_7  and  C_8 
REMARK    3  A    between atoms: C_8  and  C_9 
REMARK    4  A    between atoms: C_9  and  C_15 
REMARK    5  A    between atoms: C_15  and  C_16 
REMARK       I    between atoms: C_16  and  N_18 
REMARK    6  A    between atoms: N_18  and  C_20 
ROOT
HETATM    1  C   UNL     1       8.284  16.652   2.173  1.00  0.00     0.075 C 
HETATM    2  C   UNL     1       8.949  17.168   0.690  1.00  0.00    -0.000 C 
HETATM    3  C   UNL     1       8.822  18.137   0.247  1.00  0.00    -0.025 C 
HETATM    4  C   UNL     1       8.004  19.236   0.607  1.00  0.00     0.054 C 
HETATM    5  C   UNL     1       7.177  18.862   1.847  1.00  0.00    -0.025 C 
HETATM    6  C   UNL     1       7.157  18.044   2.409  1.00  0.00    -0.000 C 
ENDROOT
BRANCH   1   7
HETATM    7  C   UNL     1       7.878  15.533   2.538  1.00  0.00     0.021 C 
BRANCH   7   8
HETATM    8  C   UNL     1       8.076  14.369   2.850  1.00  0.00     0.098 C 
HETATM    9  N   UNL     1       8.227  13.183   2.683  1.00  0.00    -0.296 N 
ATOM     10  HN  UNL     1       8.850  12.934   1.915  1.00  0.00     0.177 HD
BRANCH   9  11
HETATM   11  S   UNL     1       7.597  11.922   3.483  1.00  0.00     0.226 S 
HETATM   12  C   UNL     1       6.283  12.498   4.355  1.00  0.00     0.186 C 
HETATM   13  O   UNL     1       7.102  10.934   2.540  1.00  0.00    -0.206 OA
HETATM   14  O   UNL     1       8.572  11.314   4.368  1.00  0.00    -0.206 OA
ENDBRANCH   9  11
ENDBRANCH   7   8
ENDBRANCH   1   7
BRANCH   1  15
HETATM   15  C   UNL     1       9.129  16.832   3.066  1.00  0.00    -0.061 C 
BRANCH  15  16
HETATM   16  C   UNL     1      10.071  16.971   3.954  1.00  0.00     0.290 C 
HETATM   17  O   UNL     1      10.894  16.187   3.866  1.00  0.00    -0.259 OA
HETATM   18  N   UNL     1       9.853  17.961   4.779  1.00  0.00    -0.315 N 
ATOM     19  HN  UNL     1       9.004  18.521   4.686  1.00  0.00     0.170 HD
BRANCH  18  20
HETATM   20  C   UNL     1      10.707  18.237   5.715  1.00  0.00     0.057 A 
HETATM   21  C   UNL     1      10.925  17.811   6.934  1.00  0.00     0.117 A 
HETATM   22  N   UNL     1      11.554  17.846   7.989  1.00  0.00    -0.373 N 
HETATM   23  C   UNL     1      12.402  18.822   7.654  1.00  0.00     0.088 A 
ATOM     24  HN  UNL     1      11.459  17.303   8.848  1.00  0.00     0.164 HD
HETATM   25  C   UNL     1      12.495  19.413   6.592  1.00  0.00     0.026 A 
HETATM   26  C   UNL     1      11.766  19.322   5.480  1.00  0.00    -0.033 A 
HETATM   27  C   UNL     1      11.910  20.102   4.097  1.00  0.00     0.050 C 
ENDBRANCH  18  20
ENDBRANCH  15  16
ENDBRANCH   1  15
TORSDOF 6
ENDMDL
