stable:False satoms:9 tatoms:24 sratio:0.375
  -OEChem-08062415403D

 45 46  0     1  0  0  0  0  0999 V2000
    6.3387   -5.1541   26.2240 C   0  0  0  0  0  0  0  0  0  0  0  0
    7.9432   -4.5497   26.0131 S   0  0  0  0  0  0  0  0  0  0  0  0
    8.8460   -5.6643   25.9910 O   0  0  0  0  0  0  0  0  0  0  0  0
    8.2243   -3.6755   27.1196 O   0  0  0  0  0  0  0  0  0  0  0  0
    7.9351   -3.7667   24.6144 N   0  0  0  0  0  0  0  0  0  0  0  0
    8.8347   -3.0947   24.1729 C   0  0  0  0  0  0  0  0  0  0  0  0
    9.2858   -2.0933   23.6047 C   0  0  0  0  0  0  0  0  0  0  0  0
   10.1629   -1.1999   23.4473 C   0  0  1  0  0  0  0  0  0  0  0  0
   10.8143   -0.0608   24.6308 C   0  0  0  0  0  0  0  0  0  0  0  0
   11.7904    0.2130   24.6875 C   0  0  0  0  0  0  0  0  0  0  0  0
   13.0194   -0.2652   23.8762 C   0  0  0  0  0  0  0  0  0  0  0  0
   12.6370   -1.2439   23.0357 C   0  0  0  0  0  0  0  0  0  0  0  0
   11.7125   -1.7448   22.7910 C   0  0  0  0  0  0  0  0  0  0  0  0
    9.6499   -0.6410   22.5397 C   0  0  0  0  0  0  0  0  0  0  0  0
    9.0234    0.0252   21.5557 C   0  0  0  0  0  0  0  0  0  0  0  0
    9.5129    0.9718   21.2254 O   0  0  0  0  0  0  0  0  0  0  0  0
    7.9404   -0.5734   21.1529 N   0  0  0  0  0  0  0  0  0  0  0  0
    7.2762   -0.0902   20.2244 C   0  0  0  0  0  0  0  0  0  0  0  0
    7.3457    0.0829   18.9488 C   0  0  0  0  0  0  0  0  0  0  0  0
    6.9826    0.4231   17.8215 N   0  0  0  0  0  0  0  0  0  0  0  0
    5.8117    0.9411   18.2406 C   0  0  0  0  0  0  0  0  0  0  0  0
    5.3042    1.0222   19.3702 C   0  0  0  0  0  0  0  0  0  0  0  0
    5.8101    0.5570   20.5454 C   0  0  0  0  0  0  0  0  0  0  0  0
    5.2443    0.6110   21.9289 C   0  0  0  0  0  0  0  0  0  0  0  0
    6.2762   -5.7062   27.1733 H   0  0  0  0  0  0  0  0  0  0  0  0
    5.6297   -4.3133   26.2415 H   0  0  0  0  0  0  0  0  0  0  0  0
    6.0883   -5.8276   25.3911 H   0  0  0  0  0  0  0  0  0  0  0  0
    7.1479   -3.1519   24.6626 H   0  0  0  0  0  0  0  0  0  0  0  0
    9.7161   -3.6799   24.3897 H   0  0  0  0  0  0  0  0  0  0  0  0
    8.5445   -1.8648   22.8532 H   0  0  0  0  0  0  0  0  0  0  0  0
   10.1275    0.3738   25.3421 H   0  0  0  0  0  0  0  0  0  0  0  0
   12.0070    0.9603   25.4366 H   0  0  0  0  0  0  0  0  0  0  0  0
   14.0224    0.1243   23.9698 H   0  0  0  0  0  0  0  0  0  0  0  0
   13.4664   -1.6258   22.4589 H   0  0  0  0  0  0  0  0  0  0  0  0
   11.6174   -1.7028   21.6960 H   0  0  0  0  0  0  0  0  0  0  0  0
   11.8331   -2.7910   23.1087 H   0  0  0  0  0  0  0  0  0  0  0  0
    9.4579   -1.5998   22.0358 H   0  0  0  0  0  0  0  0  0  0  0  0
   10.6221   -0.2434   22.2130 H   0  0  0  0  0  0  0  0  0  0  0  0
    7.6445   -1.4219   21.5917 H   0  0  0  0  0  0  0  0  0  0  0  0
    8.3270   -0.3163   18.7387 H   0  0  0  0  0  0  0  0  0  0  0  0
    5.2058    1.3615   17.4516 H   0  0  0  0  0  0  0  0  0  0  0  0
    4.3479    1.5208   19.4277 H   0  0  0  0  0  0  0  0  0  0  0  0
    4.6513   -0.2958   22.1189 H   0  0  0  0  0  0  0  0  0  0  0  0
    6.0653    0.6716   22.6586 H   0  0  0  0  0  0  0  0  0  0  0  0
    4.6003    1.4974   22.0272 H   0  0  0  0  0  0  0  0  0  0  0  0
 20 21  2  0  0  0  0
 19 20  1  0  0  0  0
 21 22  1  0  0  0  0
 18 19  2  0  0  0  0
 22 23  2  0  0  0  0
 18 23  1  0  0  0  0
 17 18  1  0  0  0  0
 23 24  1  0  0  0  0
 15 16  2  0  0  0  0
 15 17  1  0  0  0  0
 14 15  1  0  0  0  0
  8 14  1  0  0  0  0
 12 13  1  0  0  0  0
  8 13  1  0  0  0  0
 11 12  2  0  0  0  0
  7  8  1  0  0  0  0
  8  9  1  0  0  0  0
 10 11  1  0  0  0  0
  6  7  2  3  0  0  0
  5  6  1  0  0  0  0
  9 10  2  0  0  0  0
  2  5  1  0  0  0  0
  2  3  2  0  0  0  0
  1  2  1  0  0  0  0
  2  4  2  0  0  0  0
  1 25  1  0  0  0  0
  1 26  1  0  0  0  0
  1 27  1  0  0  0  0
  5 28  1  0  0  0  0
  6 29  1  0  0  0  0
  7 30  1  0  0  0  0
  9 31  1  0  0  0  0
 10 32  1  0  0  0  0
 11 33  1  0  0  0  0
 12 34  1  0  0  0  0
 13 35  1  0  0  0  0
 13 36  1  0  0  0  0
 14 37  1  0  0  0  0
 14 38  1  0  0  0  0
 17 39  1  0  0  0  0
 19 40  1  0  0  0  0
 21 41  1  0  0  0  0
 22 42  1  0  0  0  0
 24 43  1  0  0  0  0
 24 44  1  0  0  0  0
 24 45  1  0  0  0  0
M  END
> <Chemgauss4>
-13.395483

$$$$
