stable:False satoms:20 tatoms:24 sratio:0.8333333333333334
  -OEChem-07092417293D

 24 26  0     1  0  0  0  0  0999 V2000
    9.1277   -0.0111   21.6483 N   0  0  0  0  0  0  0  0  0  0  0  0
   10.4161    0.1155   20.0555 H   0  0  0  0  0  0  0  0  0  0  0  0
    8.4972   -3.7999   21.2468 N   0  0  0  0  0  0  0  0  0  0  0  0
    9.3679   -2.9074   22.0646 C   0  0  2  0  0  0  0  0  0  0  0  0
    7.6667    0.2023   23.3754 C   0  0  0  0  0  0  0  0  0  0  0  0
   10.4945   -3.6471   22.5986 C   0  0  0  0  0  0  0  0  0  0  0  0
    6.3106    3.1408   23.9461 H   0  0  0  0  0  0  0  0  0  0  0  0
    6.7245    1.2409   24.9858 C   0  0  0  0  0  0  0  0  0  0  0  0
    8.5489   -0.6811   22.6049 C   0  0  0  0  0  0  0  0  0  0  0  0
    6.9575    1.6192   21.8022 H   0  0  0  0  0  0  0  0  0  0  0  0
   10.8685   -2.8601   20.4656 H   0  0  0  0  0  0  0  0  0  0  0  0
    7.3767    0.1091   24.6688 N   0  0  0  0  0  0  0  0  0  0  0  0
    6.6436    2.1153   23.9173 C   0  0  0  0  0  0  0  0  0  0  0  0
    8.2897   -2.3768   23.7631 H   0  0  0  0  0  0  0  0  0  0  0  0
    6.3378    1.3877   25.9830 H   0  0  0  0  0  0  0  0  0  0  0  0
   10.2495   -4.7264   22.6455 H   0  0  0  0  0  0  0  0  0  0  0  0
    9.0205   -4.2278   20.2547 O   0  0  0  0  0  0  0  0  0  0  0  0
   11.1561   -3.4657   23.4466 H   0  0  0  0  0  0  0  0  0  0  0  0
   11.5008   -1.0586   21.8747 S   0  0  0  0  0  0  0  0  0  0  0  0
    8.6762   -1.9889   22.9222 N   0  0  0  0  0  0  0  0  0  0  0  0
    7.0892    1.3908   22.8329 C   0  0  0  0  0  0  0  0  0  0  0  0
    7.3650   -3.9435   21.6069 O   0  0  0  0  0  0  0  0  0  0  0  0
   10.6625   -2.6709   21.5315 C   0  0  2  0  0  0  0  0  0  0  0  0
   10.2365   -0.2465   21.0559 C   0  3  0  0  0  0  0  0  0  0  0  0
  2 24  1  0  0  0  0
  3 17  2  0  0  0  0
 11 23  1  0  0  0  0
  1 24  1  0  0  0  0
 19 24  1  0  0  0  0
  3 22  2  0  0  0  0
  3  4  1  0  0  0  0
 19 23  1  0  0  0  0
  4 23  1  0  0  0  0
  6 23  1  0  0  0  0
  1  9  2  0  0  0  0
 10 21  1  0  0  0  0
  4  6  1  0  0  0  0
  4 20  1  0  0  0  0
  6 16  1  0  0  0  0
  6 18  1  0  0  0  0
  9 20  1  0  0  0  0
  5  9  1  0  0  0  0
  5 21  2  0  0  0  0
 13 21  1  0  0  0  0
 14 20  1  0  0  0  0
  5 12  1  0  0  0  0
  7 13  1  0  0  0  0
  8 13  2  0  0  0  0
  8 12  1  0  0  0  0
  8 15  1  0  0  0  0
M  CHG  1  24   1
M  END
> <Shapegauss>
-94.626755

$$$$
