stable:False satoms:20 tatoms:24 sratio:0.8333333333333334
  -OEChem-08052418033D

 25 27  0     1  0  0  0  0  0999 V2000
    8.1496   -0.6741   20.3066 N   0  3  0  0  0  0  0  0  0  0  0  0
    6.9046   -3.8076   22.1892 N   0  0  0  0  0  0  0  0  0  0  0  0
    7.1901   -2.3769   22.4973 C   0  0  2  0  0  0  0  0  0  0  0  0
    6.0520    0.0732   19.8545 C   0  0  0  0  0  0  0  0  0  0  0  0
    7.3694   -2.1904   23.9237 C   0  0  0  0  0  0  0  0  0  0  0  0
    5.6008    2.0535   17.2710 H   0  0  0  0  0  0  0  0  0  0  0  0
    4.6210    1.5016   19.1677 C   0  0  0  0  0  0  0  0  0  0  0  0
    6.9148   -0.7398   20.7188 C   0  0  0  0  0  0  0  0  0  0  0  0
    7.0574   -0.1479   17.8732 H   0  0  0  0  0  0  0  0  0  0  0  0
    9.3024   -2.8468   22.8553 H   0  0  0  0  0  0  0  0  0  0  0  0
    4.9483    0.7211   20.2120 N   0  0  0  0  0  0  0  0  0  0  0  0
    5.5479    1.4225   18.1442 C   0  0  0  0  0  0  0  0  0  0  0  0
    5.4609   -1.2967   22.0826 H   0  0  0  0  0  0  0  0  0  0  0  0
    3.7237    2.1013   19.1939 H   0  0  0  0  0  0  0  0  0  0  0  0
    6.8608   -3.0037   24.4777 H   0  0  0  0  0  0  0  0  0  0  0  0
    7.8090   -4.5571   22.4374 O   0  0  0  0  0  0  0  0  0  0  0  0
    7.2883   -1.3118   24.5650 H   0  0  0  0  0  0  0  0  0  0  0  0
    9.2874   -0.4837   22.6410 S   0  0  0  0  0  0  0  0  0  0  0  0
    6.4061   -1.4214   21.7694 N   0  0  0  0  0  0  0  0  0  0  0  0
    6.3772    0.3802   18.4979 C   0  0  0  0  0  0  0  0  0  0  0  0
    5.8566   -4.0592   21.6689 O   0  0  0  0  0  0  0  0  0  0  0  0
    8.4920   -2.1142   22.9996 C   0  0  2  0  0  0  0  0  0  0  0  0
    9.2307   -0.8431   20.9688 C   0  0  0  0  0  2  0  0  0  0  0  0
    4.4604    0.6438   21.0814 H   0  0  0  0  0  0  0  0  0  0  0  0
    8.2684   -0.4618   19.3366 H   0  0  0  0  0  0  0  0  0  0  0  0
  2 16  2  0  0  0  0
 10 22  1  0  0  0  0
  1 23  1  0  0  0  0
 18 23  1  0  0  0  0
  2 21  2  0  0  0  0
  2  3  1  0  0  0  0
 18 22  1  0  0  0  0
  3 22  1  0  0  0  0
  5 22  1  0  0  0  0
  1  8  2  0  0  0  0
  9 20  1  0  0  0  0
  3  5  1  0  0  0  0
  3 19  1  0  0  0  0
  5 15  1  0  0  0  0
  5 17  1  0  0  0  0
  8 19  1  0  0  0  0
  4  8  1  0  0  0  0
  4 20  2  0  0  0  0
 12 20  1  0  0  0  0
 13 19  1  0  0  0  0
  4 11  1  0  0  0  0
  6 12  1  0  0  0  0
  7 12  2  0  0  0  0
  7 11  1  0  0  0  0
  7 14  1  0  0  0  0
 11 24  1  0  0  0  0
  1 25  1  0  0  0  0
M  CHG  1   1   1
M  END
> <Chemgauss4>
-6.194767

$$$$
