stable:False satoms:20 tatoms:24 sratio:0.8333333333333334
  -OEChem-08052418033D

 25 27  0     1  0  0  0  0  0999 V2000
   -8.1099   -1.0955  -20.8181 N   0  3  0  0  0  0  0  0  0  0  0  0
   -6.4175   -4.0834  -22.5850 N   0  0  0  0  0  0  0  0  0  0  0  0
   -6.7397   -2.6599  -22.8905 C   0  0  2  0  0  0  0  0  0  0  0  0
   -6.1495   -0.2520  -20.0381 C   0  0  0  0  0  0  0  0  0  0  0  0
   -6.7188   -2.4302  -24.3217 C   0  0  0  0  0  0  0  0  0  0  0  0
   -6.2009    1.6519  -17.3600 H   0  0  0  0  0  0  0  0  0  0  0  0
   -4.9226    1.2260  -19.1054 C   0  0  0  0  0  0  0  0  0  0  0  0
   -6.8263   -1.0780  -21.0441 C   0  0  0  0  0  0  0  0  0  0  0  0
   -7.4195   -0.6018  -18.2353 H   0  0  0  0  0  0  0  0  0  0  0  0
   -8.7449   -3.2311  -23.5716 H   0  0  0  0  0  0  0  0  0  0  0  0
   -5.0461    0.4684  -20.2089 N   0  0  0  0  0  0  0  0  0  0  0  0
   -5.9830    1.0579  -18.2336 C   0  0  0  0  0  0  0  0  0  0  0  0
   -5.1576   -1.5030  -22.1925 H   0  0  0  0  0  0  0  0  0  0  0  0
   -4.0685    1.8745  -18.9806 H   0  0  0  0  0  0  0  0  0  0  0  0
   -6.0869   -3.1931  -24.8174 H   0  0  0  0  0  0  0  0  0  0  0  0
   -7.2293   -4.8715  -22.9863 O   0  0  0  0  0  0  0  0  0  0  0  0
   -6.5973   -1.5251  -24.9181 H   0  0  0  0  0  0  0  0  0  0  0  0
   -8.9025   -0.8804  -23.2890 S   0  0  0  0  0  0  0  0  0  0  0  0
   -6.1293   -1.6909  -22.0268 N   0  0  0  0  0  0  0  0  0  0  0  0
   -6.6878   -0.0143  -18.7366 C   0  0  0  0  0  0  0  0  0  0  0  0
   -5.4440   -4.2965  -21.9223 O   0  0  0  0  0  0  0  0  0  0  0  0
   -7.9672   -2.4503  -23.5727 C   0  0  2  0  0  0  0  0  0  0  0  0
   -9.0701   -1.2986  -21.6381 C   0  0  0  0  0  2  0  0  0  0  0  0
   -4.4322    0.4506  -20.9981 H   0  0  0  0  0  0  0  0  0  0  0  0
   -8.3820   -0.9265  -19.8707 H   0  0  0  0  0  0  0  0  0  0  0  0
  2 16  2  0  0  0  0
 10 22  1  0  0  0  0
  1 23  1  0  0  0  0
 18 23  1  0  0  0  0
  2 21  2  0  0  0  0
  2  3  1  0  0  0  0
 18 22  1  0  0  0  0
  3 22  1  0  0  0  0
  5 22  1  0  0  0  0
  1  8  2  0  0  0  0
  9 20  1  0  0  0  0
  3  5  1  0  0  0  0
  3 19  1  0  0  0  0
  5 15  1  0  0  0  0
  5 17  1  0  0  0  0
  8 19  1  0  0  0  0
  4  8  1  0  0  0  0
  4 20  2  0  0  0  0
 12 20  1  0  0  0  0
 13 19  1  0  0  0  0
  4 11  1  0  0  0  0
  6 12  1  0  0  0  0
  7 12  2  0  0  0  0
  7 11  1  0  0  0  0
  7 14  1  0  0  0  0
 11 24  1  0  0  0  0
  1 25  1  0  0  0  0
M  CHG  1   1   1
M  END
> <Chemgauss4>
-6.461898

$$$$
