stable:False satoms:4 tatoms:24 sratio:0.16666666666666666
  -OEChem-08062416153D

 45 46  0     1  0  0  0  0  0999 V2000
    6.0932   -4.9999   26.2925 C   0  0  0  0  0  0  0  0  0  0  0  0
    7.7140   -4.3773   26.1418 S   0  0  0  0  0  0  0  0  0  0  0  0
    8.6208   -5.4941   26.1678 O   0  0  0  0  0  0  0  0  0  0  0  0
    7.9674   -3.4630   27.2263 O   0  0  0  0  0  0  0  0  0  0  0  0
    7.7687   -3.6378   24.6847 N   0  0  0  0  0  0  0  0  0  0  0  0
    8.6125   -2.9200   24.2748 C   0  0  0  0  0  0  0  0  0  0  0  0
    9.0647   -1.9211   23.7293 C   0  0  0  0  0  0  0  0  0  0  0  0
    9.9347   -0.9754   23.6164 C   0  0  1  0  0  0  0  0  0  0  0  0
   10.4553    0.1400   24.7065 C   0  0  0  0  0  0  0  0  0  0  0  0
   11.4606    0.5531   24.8639 C   0  0  0  0  0  0  0  0  0  0  0  0
   12.6946    0.0734   24.1700 C   0  0  0  0  0  0  0  0  0  0  0  0
   12.4107   -0.9314   23.3296 C   0  0  0  0  0  0  0  0  0  0  0  0
   11.5234   -1.4601   23.0311 C   0  0  0  0  0  0  0  0  0  0  0  0
    9.4572   -0.4578   22.6286 C   0  0  0  0  0  0  0  0  0  0  0  0
    8.8497    0.1384   21.5931 C   0  0  0  0  0  0  0  0  0  0  0  0
    9.2904    1.1390   21.2568 O   0  0  0  0  0  0  0  0  0  0  0  0
    7.7921   -0.5223   21.1614 N   0  0  0  0  0  0  0  0  0  0  0  0
    7.1541   -0.0893   20.1715 C   0  0  0  0  0  0  0  0  0  0  0  0
    7.3706    0.0087   18.8988 C   0  0  0  0  0  0  0  0  0  0  0  0
    6.9384    0.3837   17.7596 N   0  0  0  0  0  0  0  0  0  0  0  0
    5.7721    0.8469   18.1512 C   0  0  0  0  0  0  0  0  0  0  0  0
    5.2492    0.8805   19.2170 C   0  0  0  0  0  0  0  0  0  0  0  0
    5.6931    0.4831   20.3888 C   0  0  0  0  0  0  0  0  0  0  0  0
    5.0047    0.5400   21.8204 C   0  0  0  0  0  0  0  0  0  0  0  0
    5.9858   -5.5144   27.2588 H   0  0  0  0  0  0  0  0  0  0  0  0
    5.3748   -4.1688   26.2378 H   0  0  0  0  0  0  0  0  0  0  0  0
    5.8958   -5.7096   25.4755 H   0  0  0  0  0  0  0  0  0  0  0  0
    6.9291   -3.0963   24.6412 H   0  0  0  0  0  0  0  0  0  0  0  0
    9.5112   -3.4615   24.5311 H   0  0  0  0  0  0  0  0  0  0  0  0
    8.3744   -1.7346   22.9199 H   0  0  0  0  0  0  0  0  0  0  0  0
    9.6932    0.5247   25.3680 H   0  0  0  0  0  0  0  0  0  0  0  0
   11.5650    1.3635   25.5701 H   0  0  0  0  0  0  0  0  0  0  0  0
   13.6824    0.4817   24.3250 H   0  0  0  0  0  0  0  0  0  0  0  0
   13.2922   -1.3021   22.8276 H   0  0  0  0  0  0  0  0  0  0  0  0
   11.4817   -1.4050   21.9332 H   0  0  0  0  0  0  0  0  0  0  0  0
   11.6643   -2.5062   23.3406 H   0  0  0  0  0  0  0  0  0  0  0  0
    9.5708   -1.3901   22.0560 H   0  0  0  0  0  0  0  0  0  0  0  0
   10.3526    0.1667   22.4938 H   0  0  0  0  0  0  0  0  0  0  0  0
    7.5013   -1.3620   21.6199 H   0  0  0  0  0  0  0  0  0  0  0  0
    8.3496   -0.4135   18.7260 H   0  0  0  0  0  0  0  0  0  0  0  0
    5.1800    1.2765   17.3567 H   0  0  0  0  0  0  0  0  0  0  0  0
    4.2552    1.3029   19.2247 H   0  0  0  0  0  0  0  0  0  0  0  0
    4.4437   -0.3899   21.9953 H   0  0  0  0  0  0  0  0  0  0  0  0
    5.7779    0.6527   22.5947 H   0  0  0  0  0  0  0  0  0  0  0  0
    4.3162    1.3969   21.8623 H   0  0  0  0  0  0  0  0  0  0  0  0
 20 21  2  0  0  0  0
 19 20  1  0  0  0  0
 21 22  1  0  0  0  0
 18 19  2  0  0  0  0
 22 23  2  0  0  0  0
 18 23  1  0  0  0  0
 17 18  1  0  0  0  0
 23 24  1  0  0  0  0
 15 16  2  0  0  0  0
 15 17  1  0  0  0  0
 14 15  1  0  0  0  0
  8 14  1  0  0  0  0
 12 13  1  0  0  0  0
  8 13  1  0  0  0  0
 11 12  2  0  0  0  0
  7  8  1  0  0  0  0
  8  9  1  0  0  0  0
 10 11  1  0  0  0  0
  6  7  2  3  0  0  0
  5  6  1  0  0  0  0
  9 10  2  0  0  0  0
  2  5  1  0  0  0  0
  2  3  2  0  0  0  0
  1  2  1  0  0  0  0
  2  4  2  0  0  0  0
  1 25  1  0  0  0  0
  1 26  1  0  0  0  0
  1 27  1  0  0  0  0
  5 28  1  0  0  0  0
  6 29  1  0  0  0  0
  7 30  1  0  0  0  0
  9 31  1  0  0  0  0
 10 32  1  0  0  0  0
 11 33  1  0  0  0  0
 12 34  1  0  0  0  0
 13 35  1  0  0  0  0
 13 36  1  0  0  0  0
 14 37  1  0  0  0  0
 14 38  1  0  0  0  0
 17 39  1  0  0  0  0
 19 40  1  0  0  0  0
 21 41  1  0  0  0  0
 22 42  1  0  0  0  0
 24 43  1  0  0  0  0
 24 44  1  0  0  0  0
 24 45  1  0  0  0  0
M  END
> <Chemgauss4>
-12.556102

$$$$
