stable:False satoms:4 tatoms:24 sratio:0.16666666666666666
  -OEChem-08062416153D

 45 46  0     1  0  0  0  0  0999 V2000
   -6.8161   -5.3029  -26.2247 C   0  0  0  0  0  0  0  0  0  0  0  0
   -8.4318   -4.6975  -25.9795 S   0  0  0  0  0  0  0  0  0  0  0  0
   -9.3221   -5.8262  -25.9183 O   0  0  0  0  0  0  0  0  0  0  0  0
   -8.7706   -3.8129  -27.0652 O   0  0  0  0  0  0  0  0  0  0  0  0
   -8.3991   -3.9239  -24.5394 N   0  0  0  0  0  0  0  0  0  0  0  0
   -9.2237   -3.2073  -24.0903 C   0  0  0  0  0  0  0  0  0  0  0  0
   -9.6525   -2.2015  -23.5388 C   0  0  0  0  0  0  0  0  0  0  0  0
  -10.5264   -1.2644  -23.3893 C   0  0  1  0  0  0  0  0  0  0  0  0
  -11.1351   -0.1823  -24.4673 C   0  0  0  0  0  0  0  0  0  0  0  0
  -12.1545    0.2140  -24.5660 C   0  0  0  0  0  0  0  0  0  0  0  0
  -13.3321   -0.2646  -23.7795 C   0  0  0  0  0  0  0  0  0  0  0  0
  -12.9779   -1.2452  -22.9371 C   0  0  0  0  0  0  0  0  0  0  0  0
  -12.0651   -1.7551  -22.6870 C   0  0  0  0  0  0  0  0  0  0  0  0
   -9.9911   -0.7172  -22.4483 C   0  0  0  0  0  0  0  0  0  0  0  0
   -9.3241   -0.0885  -21.4703 C   0  0  0  0  0  0  0  0  0  0  0  0
   -9.7555    0.9142  -21.1283 O   0  0  0  0  0  0  0  0  0  0  0  0
   -8.2305   -0.7250  -21.0957 N   0  0  0  0  0  0  0  0  0  0  0  0
   -7.5337   -0.2602  -20.1615 C   0  0  0  0  0  0  0  0  0  0  0  0
   -7.6656   -0.1344  -18.8797 C   0  0  0  0  0  0  0  0  0  0  0  0
   -7.1632    0.2734  -17.7813 N   0  0  0  0  0  0  0  0  0  0  0  0
   -6.0327    0.7419  -18.2613 C   0  0  0  0  0  0  0  0  0  0  0  0
   -5.5830    0.7565  -19.3605 C   0  0  0  0  0  0  0  0  0  0  0  0
   -6.0989    0.3254  -20.4901 C   0  0  0  0  0  0  0  0  0  0  0  0
   -5.5092    0.3566  -21.9659 C   0  0  0  0  0  0  0  0  0  0  0  0
   -6.7665   -5.8390  -27.1839 H   0  0  0  0  0  0  0  0  0  0  0  0
   -6.1075   -4.4615  -26.2380 H   0  0  0  0  0  0  0  0  0  0  0  0
   -6.5540   -5.9900  -25.4067 H   0  0  0  0  0  0  0  0  0  0  0  0
   -7.5664   -3.3709  -24.5653 H   0  0  0  0  0  0  0  0  0  0  0  0
  -10.1297   -3.7662  -24.2728 H   0  0  0  0  0  0  0  0  0  0  0  0
   -8.9121   -1.9866  -22.7824 H   0  0  0  0  0  0  0  0  0  0  0  0
  -10.4247    0.1960  -25.1875 H   0  0  0  0  0  0  0  0  0  0  0  0
  -12.3178    1.0057  -25.2821 H   0  0  0  0  0  0  0  0  0  0  0  0
  -14.3338    0.1271  -23.8769 H   0  0  0  0  0  0  0  0  0  0  0  0
  -13.8183   -1.6149  -22.3683 H   0  0  0  0  0  0  0  0  0  0  0  0
  -11.9505   -1.6731  -21.5961 H   0  0  0  0  0  0  0  0  0  0  0  0
  -12.2114   -2.8101  -22.9621 H   0  0  0  0  0  0  0  0  0  0  0  0
  -10.0526   -1.6368  -21.8479 H   0  0  0  0  0  0  0  0  0  0  0  0
  -10.8843   -0.1011  -22.2678 H   0  0  0  0  0  0  0  0  0  0  0  0
   -7.9591   -1.5718  -21.5533 H   0  0  0  0  0  0  0  0  0  0  0  0
   -8.6245   -0.5647  -18.6315 H   0  0  0  0  0  0  0  0  0  0  0  0
   -5.3947    1.1980  -17.5187 H   0  0  0  0  0  0  0  0  0  0  0  0
   -4.5980    1.1913  -19.4451 H   0  0  0  0  0  0  0  0  0  0  0  0
   -4.9479   -0.5700  -22.1566 H   0  0  0  0  0  0  0  0  0  0  0  0
   -6.3342    0.4407  -22.6886 H   0  0  0  0  0  0  0  0  0  0  0  0
   -4.8375    1.2209  -22.0740 H   0  0  0  0  0  0  0  0  0  0  0  0
 20 21  2  0  0  0  0
 19 20  1  0  0  0  0
 21 22  1  0  0  0  0
 18 19  2  0  0  0  0
 22 23  2  0  0  0  0
 18 23  1  0  0  0  0
 17 18  1  0  0  0  0
 23 24  1  0  0  0  0
 15 16  2  0  0  0  0
 15 17  1  0  0  0  0
 14 15  1  0  0  0  0
  8 14  1  0  0  0  0
 12 13  1  0  0  0  0
  8 13  1  0  0  0  0
 11 12  2  0  0  0  0
  7  8  1  0  0  0  0
  8  9  1  0  0  0  0
 10 11  1  0  0  0  0
  6  7  2  3  0  0  0
  5  6  1  0  0  0  0
  9 10  2  0  0  0  0
  2  5  1  0  0  0  0
  2  3  2  0  0  0  0
  1  2  1  0  0  0  0
  2  4  2  0  0  0  0
  1 25  1  0  0  0  0
  1 26  1  0  0  0  0
  1 27  1  0  0  0  0
  5 28  1  0  0  0  0
  6 29  1  0  0  0  0
  7 30  1  0  0  0  0
  9 31  1  0  0  0  0
 10 32  1  0  0  0  0
 11 33  1  0  0  0  0
 12 34  1  0  0  0  0
 13 35  1  0  0  0  0
 13 36  1  0  0  0  0
 14 37  1  0  0  0  0
 14 38  1  0  0  0  0
 17 39  1  0  0  0  0
 19 40  1  0  0  0  0
 21 41  1  0  0  0  0
 22 42  1  0  0  0  0
 24 43  1  0  0  0  0
 24 44  1  0  0  0  0
 24 45  1  0  0  0  0
M  END
> <Chemgauss4>
-12.655618

$$$$
