MODEL 1
REMARK VINA RESULT:    -6.976      0.000      0.000
REMARK INTER + INTRA:         -11.658
REMARK INTER:                 -10.647
REMARK INTRA:                  -1.011
REMARK UNBOUND:                -1.011
REMARK  9 active torsions:
REMARK  status: ('A' for Active; 'I' for Inactive)
REMARK    1  A    between atoms: S_2  and  N_5 
REMARK    2  A    between atoms: C_7  and  C_8 
REMARK    3  A    between atoms: C_8  and  C_9 
REMARK    4  A    between atoms: C_9  and  C_15 
REMARK    5  A    between atoms: C_9  and  C_10 
REMARK    6  A    between atoms: C_10  and  C_11 
REMARK    7  A    between atoms: C_11  and  C_12 
REMARK    8  A    between atoms: C_15  and  C_16 
REMARK       I    between atoms: C_16  and  N_18 
REMARK    9  A    between atoms: N_18  and  C_20 
ROOT
HETATM    1  C   UNL     1       9.493  -1.701  23.162  1.00  0.00     0.109 C 
ENDROOT
BRANCH   1   2
HETATM    2  C   UNL     1       8.631  -2.593  23.360  1.00  0.00     0.011 C 
BRANCH   2   3
HETATM    3  C   UNL     1       7.961  -3.538  23.005  1.00  0.00     0.097 C 
HETATM    4  N   UNL     1       7.585  -4.419  22.217  1.00  0.00    -0.296 N 
ATOM      5  HN  UNL     1       8.296  -4.919  21.683  1.00  0.00     0.177 HD
BRANCH   4   6
HETATM    6  S   UNL     1       6.055  -4.819  21.987  1.00  0.00     0.226 S 
HETATM    7  C   UNL     1       5.598  -5.652  23.481  1.00  0.00     0.186 C 
HETATM    8  O   UNL     1       5.215  -3.650  21.850  1.00  0.00    -0.206 OA
HETATM    9  O   UNL     1       5.809  -5.754  20.916  1.00  0.00    -0.206 OA
ENDBRANCH   4   6
ENDBRANCH   2   3
ENDBRANCH   1   2
BRANCH   1  10
HETATM   10  C   UNL     1       8.910  -1.146  22.228  1.00  0.00    -0.071 C 
BRANCH  10  11
HETATM   11  C   UNL     1       8.418  -0.486  21.202  1.00  0.00     0.289 C 
HETATM   12  O   UNL     1       9.145   0.221  20.655  1.00  0.00    -0.259 OA
HETATM   13  N   UNL     1       7.126  -0.716  21.018  1.00  0.00    -0.315 N 
ATOM     14  HN  UNL     1       6.621  -1.329  21.658  1.00  0.00     0.170 HD
BRANCH  13  15
HETATM   15  C   UNL     1       6.520  -0.176  20.050  1.00  0.00     0.057 A 
HETATM   16  C   UNL     1       6.210  -0.475  18.822  1.00  0.00     0.117 A 
HETATM   17  N   UNL     1       5.710  -0.234  17.715  1.00  0.00    -0.373 N 
HETATM   18  C   UNL     1       5.266   0.990  17.972  1.00  0.00     0.088 A 
ATOM     19  HN  UNL     1       5.656  -0.800  16.868  1.00  0.00     0.164 HD
HETATM   20  C   UNL     1       5.352   1.612  19.045  1.00  0.00     0.026 A 
HETATM   21  C   UNL     1       5.890   1.258  20.232  1.00  0.00    -0.033 A 
HETATM   22  C   UNL     1       5.952   2.094  21.573  1.00  0.00     0.050 C 
ENDBRANCH  13  15
ENDBRANCH  10  11
ENDBRANCH   1  10
BRANCH   1  23
HETATM   23  C   UNL     1      10.271  -0.697  24.143  1.00  0.00    -0.006 C 
BRANCH  23  24
HETATM   24  C   UNL     1      11.139  -0.031  23.901  1.00  0.00    -0.002 C 
BRANCH  24  25
HETATM   25  C   UNL     1      12.441   0.019  24.571  1.00  0.00    -0.001 C 
HETATM   26  C   UNL     1      13.345  -0.890  23.996  1.00  0.00    -0.010 C 
HETATM   27  C   UNL     1      13.326  -1.521  23.200  1.00  0.00     0.011 C 
ENDBRANCH  24  25
ENDBRANCH  23  24
ENDBRANCH   1  23
TORSDOF 9
ENDMDL
MODEL 2
REMARK VINA RESULT:    -6.684      2.682      6.367
REMARK INTER + INTRA:         -11.211
REMARK INTER:                  -9.952
REMARK INTRA:                  -1.259
REMARK UNBOUND:                -1.011
REMARK  9 active torsions:
REMARK  status: ('A' for Active; 'I' for Inactive)
REMARK    1  A    between atoms: S_2  and  N_5 
REMARK    2  A    between atoms: C_7  and  C_8 
REMARK    3  A    between atoms: C_8  and  C_9 
REMARK    4  A    between atoms: C_9  and  C_15 
REMARK    5  A    between atoms: C_9  and  C_10 
REMARK    6  A    between atoms: C_10  and  C_11 
REMARK    7  A    between atoms: C_11  and  C_12 
REMARK    8  A    between atoms: C_15  and  C_16 
REMARK       I    between atoms: C_16  and  N_18 
REMARK    9  A    between atoms: N_18  and  C_20 
ROOT
HETATM    1  C   UNL     1       6.893  -3.632  22.177  1.00  0.00     0.109 C 
ENDROOT
BRANCH   1   2
HETATM    2  C   UNL     1       6.391  -2.543  21.802  1.00  0.00     0.011 C 
BRANCH   2   3
HETATM    3  C   UNL     1       6.393  -1.531  21.137  1.00  0.00     0.097 C 
HETATM    4  N   UNL     1       5.880  -0.550  20.578  1.00  0.00    -0.296 N 
ATOM      5  HN  UNL     1       5.161  -0.033  21.083  1.00  0.00     0.177 HD
BRANCH   4   6
HETATM    6  S   UNL     1       6.277  -0.046  19.114  1.00  0.00     0.226 S 
HETATM    7  C   UNL     1       5.301   1.414  18.882  1.00  0.00     0.186 C 
HETATM    8  O   UNL     1       7.671   0.330  19.042  1.00  0.00    -0.206 OA
HETATM    9  O   UNL     1       5.929  -0.935  18.033  1.00  0.00    -0.206 OA
ENDBRANCH   4   6
ENDBRANCH   2   3
ENDBRANCH   1   2
BRANCH   1  10
HETATM   10  C   UNL     1       7.920  -3.154  22.664  1.00  0.00    -0.071 C 
BRANCH  10  11
HETATM   11  C   UNL     1       8.959  -2.682  23.317  1.00  0.00     0.289 C 
HETATM   12  O   UNL     1       9.004  -2.919  24.444  1.00  0.00    -0.259 OA
HETATM   13  N   UNL     1       9.755  -1.950  22.550  1.00  0.00    -0.315 N 
ATOM     14  HN  UNL     1       9.513  -1.787  21.573  1.00  0.00     0.170 HD
BRANCH  13  15
HETATM   15  C   UNL     1      10.814  -1.455  23.031  1.00  0.00     0.057 A 
HETATM   16  C   UNL     1      12.086  -1.729  23.041  1.00  0.00     0.117 A 
HETATM   17  N   UNL     1      13.261  -1.521  23.370  1.00  0.00    -0.373 N 
HETATM   18  C   UNL     1      13.064  -0.424  24.090  1.00  0.00     0.088 A 
ATOM     19  HN  UNL     1      14.116  -2.034  23.154  1.00  0.00     0.164 HD
HETATM   20  C   UNL     1      11.985   0.159  24.293  1.00  0.00     0.026 A 
HETATM   21  C   UNL     1      10.735  -0.118  23.863  1.00  0.00    -0.033 A 
HETATM   22  C   UNL     1       9.398   0.680  24.144  1.00  0.00     0.050 C 
ENDBRANCH  13  15
ENDBRANCH  10  11
ENDBRANCH   1  10
BRANCH   1  23
HETATM   23  C   UNL     1       6.302  -4.887  22.985  1.00  0.00    -0.006 C 
BRANCH  23  24
HETATM   24  C   UNL     1       5.630  -4.875  23.881  1.00  0.00    -0.002 C 
BRANCH  24  25
HETATM   25  C   UNL     1       5.772  -5.653  25.114  1.00  0.00    -0.001 C 
HETATM   26  C   UNL     1       6.111  -4.829  26.201  1.00  0.00    -0.010 C 
HETATM   27  C   UNL     1       6.221  -3.830  26.340  1.00  0.00     0.011 C 
ENDBRANCH  24  25
ENDBRANCH  23  24
ENDBRANCH   1  23
TORSDOF 9
ENDMDL
MODEL 3
REMARK VINA RESULT:    -6.457     14.081     16.070
REMARK INTER + INTRA:         -10.864
REMARK INTER:                  -9.458
REMARK INTRA:                  -1.407
REMARK UNBOUND:                -1.011
REMARK  9 active torsions:
REMARK  status: ('A' for Active; 'I' for Inactive)
REMARK    1  A    between atoms: S_2  and  N_5 
REMARK    2  A    between atoms: C_7  and  C_8 
REMARK    3  A    between atoms: C_8  and  C_9 
REMARK    4  A    between atoms: C_9  and  C_15 
REMARK    5  A    between atoms: C_9  and  C_10 
REMARK    6  A    between atoms: C_10  and  C_11 
REMARK    7  A    between atoms: C_11  and  C_12 
REMARK    8  A    between atoms: C_15  and  C_16 
REMARK       I    between atoms: C_16  and  N_18 
REMARK    9  A    between atoms: N_18  and  C_20 
ROOT
HETATM    1  C   UNL     1      24.022  -1.592  23.519  1.00  0.00     0.109 C 
ENDROOT
BRANCH   1   2
HETATM    2  C   UNL     1      23.800  -2.799  23.790  1.00  0.00     0.011 C 
BRANCH   2   3
HETATM    3  C   UNL     1      24.136  -3.887  24.201  1.00  0.00     0.097 C 
HETATM    4  N   UNL     1      24.130  -5.127  24.242  1.00  0.00    -0.296 N 
ATOM      5  HN  UNL     1      24.117  -5.635  23.358  1.00  0.00     0.177 HD
BRANCH   4   6
HETATM    6  S   UNL     1      24.139  -5.977  25.596  1.00  0.00     0.226 S 
HETATM    7  C   UNL     1      25.824  -5.905  26.137  1.00  0.00     0.186 C 
HETATM    8  O   UNL     1      23.314  -5.364  26.613  1.00  0.00    -0.206 OA
HETATM    9  O   UNL     1      23.823  -7.377  25.455  1.00  0.00    -0.206 OA
ENDBRANCH   4   6
ENDBRANCH   2   3
ENDBRANCH   1   2
BRANCH   1  10
HETATM   10  C   UNL     1      23.698  -1.653  22.330  1.00  0.00    -0.071 C 
BRANCH  10  11
HETATM   11  C   UNL     1      23.243  -1.621  21.097  1.00  0.00     0.289 C 
HETATM   12  O   UNL     1      22.123  -1.853  20.959  1.00  0.00    -0.259 OA
HETATM   13  N   UNL     1      24.196  -1.378  20.207  1.00  0.00    -0.315 N 
ATOM     14  HN  UNL     1      25.162  -1.267  20.512  1.00  0.00     0.170 HD
BRANCH  13  15
HETATM   15  C   UNL     1      23.906  -1.285  18.981  1.00  0.00     0.057 A 
HETATM   16  C   UNL     1      23.487  -0.368  18.158  1.00  0.00     0.117 A 
HETATM   17  N   UNL     1      23.123   0.041  17.047  1.00  0.00    -0.373 N 
HETATM   18  C   UNL     1      23.246  -1.098  16.377  1.00  0.00     0.088 A 
ATOM     19  HN  UNL     1      22.822   0.967  16.742  1.00  0.00     0.164 HD
HETATM   20  C   UNL     1      23.642  -2.191  16.817  1.00  0.00     0.026 A 
HETATM   21  C   UNL     1      24.059  -2.550  18.050  1.00  0.00    -0.033 A 
HETATM   22  C   UNL     1      24.571  -3.962  18.544  1.00  0.00     0.050 C 
ENDBRANCH  13  15
ENDBRANCH  10  11
ENDBRANCH   1  10
BRANCH   1  23
HETATM   23  C   UNL     1      23.618  -0.218  24.242  1.00  0.00    -0.006 C 
BRANCH  23  24
HETATM   24  C   UNL     1      22.620   0.076  24.657  1.00  0.00    -0.002 C 
BRANCH  24  25
HETATM   25  C   UNL     1      22.010  -0.364  25.915  1.00  0.00    -0.001 C 
HETATM   26  C   UNL     1      20.882  -1.167  25.682  1.00  0.00    -0.010 C 
HETATM   27  C   UNL     1      20.432  -1.557  24.859  1.00  0.00     0.011 C 
ENDBRANCH  24  25
ENDBRANCH  23  24
ENDBRANCH   1  23
TORSDOF 9
ENDMDL
MODEL 4
REMARK VINA RESULT:    -6.441      2.330      5.117
REMARK INTER + INTRA:         -10.841
REMARK INTER:                  -9.749
REMARK INTRA:                  -1.092
REMARK UNBOUND:                -1.011
REMARK  9 active torsions:
REMARK  status: ('A' for Active; 'I' for Inactive)
REMARK    1  A    between atoms: S_2  and  N_5 
REMARK    2  A    between atoms: C_7  and  C_8 
REMARK    3  A    between atoms: C_8  and  C_9 
REMARK    4  A    between atoms: C_9  and  C_15 
REMARK    5  A    between atoms: C_9  and  C_10 
REMARK    6  A    between atoms: C_10  and  C_11 
REMARK    7  A    between atoms: C_11  and  C_12 
REMARK    8  A    between atoms: C_15  and  C_16 
REMARK       I    between atoms: C_16  and  N_18 
REMARK    9  A    between atoms: N_18  and  C_20 
ROOT
HETATM    1  C   UNL     1       7.108  -2.872  23.935  1.00  0.00     0.109 C 
ENDROOT
BRANCH   1   2
HETATM    2  C   UNL     1       8.324  -2.636  23.725  1.00  0.00     0.011 C 
BRANCH   2   3
HETATM    3  C   UNL     1       9.348  -2.019  23.919  1.00  0.00     0.097 C 
HETATM    4  N   UNL     1      10.077  -1.200  24.500  1.00  0.00    -0.296 N 
ATOM      5  HN  UNL     1      10.049  -1.173  25.518  1.00  0.00     0.177 HD
BRANCH   4   6
HETATM    6  S   UNL     1      11.057  -0.185  23.749  1.00  0.00     0.226 S 
HETATM    7  C   UNL     1      10.659   1.393  24.448  1.00  0.00     0.186 C 
HETATM    8  O   UNL     1      12.444  -0.470  24.044  1.00  0.00    -0.206 OA
HETATM    9  O   UNL     1      10.851  -0.056  22.327  1.00  0.00    -0.206 OA
ENDBRANCH   4   6
ENDBRANCH   2   3
ENDBRANCH   1   2
BRANCH   1  10
HETATM   10  C   UNL     1       6.716  -2.614  22.794  1.00  0.00    -0.071 C 
BRANCH  10  11
HETATM   11  C   UNL     1       6.249  -2.209  21.634  1.00  0.00     0.289 C 
HETATM   12  O   UNL     1       5.584  -2.957  21.062  1.00  0.00    -0.259 OA
HETATM   13  N   UNL     1       6.688  -1.004  21.299  1.00  0.00    -0.315 N 
ATOM     14  HN  UNL     1       7.340  -0.511  21.908  1.00  0.00     0.170 HD
BRANCH  13  15
HETATM   15  C   UNL     1       6.299  -0.467  20.223  1.00  0.00     0.057 A 
HETATM   16  C   UNL     1       6.040  -0.835  19.002  1.00  0.00     0.117 A 
HETATM   17  N   UNL     1       5.701  -0.625  17.830  1.00  0.00    -0.373 N 
HETATM   18  C   UNL     1       5.512   0.685  17.920  1.00  0.00     0.088 A 
ATOM     19  HN  UNL     1       5.600  -1.262  17.039  1.00  0.00     0.164 HD
HETATM   20  C   UNL     1       5.637   1.395  18.933  1.00  0.00     0.026 A 
HETATM   21  C   UNL     1       5.981   1.078  20.200  1.00  0.00    -0.033 A 
HETATM   22  C   UNL     1       6.105   2.033  21.454  1.00  0.00     0.050 C 
ENDBRANCH  13  15
ENDBRANCH  10  11
ENDBRANCH   1  10
BRANCH   1  23
HETATM   23  C   UNL     1       6.337  -4.091  24.637  1.00  0.00    -0.006 C 
BRANCH  23  24
HETATM   24  C   UNL     1       6.384  -5.180  24.375  1.00  0.00    -0.002 C 
BRANCH  24  25
HETATM   25  C   UNL     1       5.555  -5.903  23.408  1.00  0.00    -0.001 C 
HETATM   26  C   UNL     1       6.286  -6.233  22.255  1.00  0.00    -0.010 C 
HETATM   27  C   UNL     1       7.254  -6.141  21.965  1.00  0.00     0.011 C 
ENDBRANCH  24  25
ENDBRANCH  23  24
ENDBRANCH   1  23
TORSDOF 9
ENDMDL
MODEL 5
REMARK VINA RESULT:    -6.380      2.138      2.226
REMARK INTER + INTRA:         -10.747
REMARK INTER:                  -9.749
REMARK INTRA:                  -0.999
REMARK UNBOUND:                -1.011
REMARK  9 active torsions:
REMARK  status: ('A' for Active; 'I' for Inactive)
REMARK    1  A    between atoms: S_2  and  N_5 
REMARK    2  A    between atoms: C_7  and  C_8 
REMARK    3  A    between atoms: C_8  and  C_9 
REMARK    4  A    between atoms: C_9  and  C_15 
REMARK    5  A    between atoms: C_9  and  C_10 
REMARK    6  A    between atoms: C_10  and  C_11 
REMARK    7  A    between atoms: C_11  and  C_12 
REMARK    8  A    between atoms: C_15  and  C_16 
REMARK       I    between atoms: C_16  and  N_18 
REMARK    9  A    between atoms: N_18  and  C_20 
ROOT
HETATM    1  C   UNL     1       9.416  -1.216  23.547  1.00  0.00     0.109 C 
ENDROOT
BRANCH   1   2
HETATM    2  C   UNL     1       8.567  -2.128  23.711  1.00  0.00     0.011 C 
BRANCH   2   3
HETATM    3  C   UNL     1       7.990  -2.949  24.389  1.00  0.00     0.097 C 
HETATM    4  N   UNL     1       7.412  -3.366  25.405  1.00  0.00    -0.296 N 
ATOM      5  HN  UNL     1       6.749  -2.744  25.867  1.00  0.00     0.177 HD
BRANCH   4   6
HETATM    6  S   UNL     1       7.643  -4.817  26.033  1.00  0.00     0.226 S 
HETATM    7  C   UNL     1       6.115  -5.662  25.736  1.00  0.00     0.186 C 
HETATM    8  O   UNL     1       8.694  -5.532  25.345  1.00  0.00    -0.206 OA
HETATM    9  O   UNL     1       7.849  -4.853  27.460  1.00  0.00    -0.206 OA
ENDBRANCH   4   6
ENDBRANCH   2   3
ENDBRANCH   1   2
BRANCH   1  10
HETATM   10  C   UNL     1       9.007  -0.840  22.445  1.00  0.00    -0.071 C 
BRANCH  10  11
HETATM   11  C   UNL     1       8.484  -0.345  21.345  1.00  0.00     0.289 C 
HETATM   12  O   UNL     1       9.201   0.241  20.659  1.00  0.00    -0.259 OA
HETATM   13  N   UNL     1       7.180  -0.565  21.255  1.00  0.00    -0.315 N 
ATOM     14  HN  UNL     1       6.691  -1.048  22.008  1.00  0.00     0.170 HD
BRANCH  13  15
HETATM   15  C   UNL     1       6.543  -0.174  20.236  1.00  0.00     0.057 A 
HETATM   16  C   UNL     1       6.233  -0.637  19.060  1.00  0.00     0.117 A 
HETATM   17  N   UNL     1       5.712  -0.555  17.939  1.00  0.00    -0.373 N 
HETATM   18  C   UNL     1       5.222   0.674  18.048  1.00  0.00     0.088 A 
ATOM     19  HN  UNL     1       5.672  -1.224  17.170  1.00  0.00     0.164 HD
HETATM   20  C   UNL     1       5.295   1.428  19.034  1.00  0.00     0.026 A 
HETATM   21  C   UNL     1       5.858   1.246  20.247  1.00  0.00    -0.033 A 
HETATM   22  C   UNL     1       5.900   2.246  21.472  1.00  0.00     0.050 C 
ENDBRANCH  13  15
ENDBRANCH  10  11
ENDBRANCH   1  10
BRANCH   1  23
HETATM   23  C   UNL     1       9.944  -0.031  24.492  1.00  0.00    -0.006 C 
BRANCH  23  24
HETATM   24  C   UNL     1      10.964   0.091  24.938  1.00  0.00    -0.002 C 
BRANCH  24  25
HETATM   25  C   UNL     1      12.110   0.803  24.367  1.00  0.00    -0.001 C 
HETATM   26  C   UNL     1      13.114  -0.090  23.959  1.00  0.00    -0.010 C 
HETATM   27  C   UNL     1      13.205  -1.100  23.915  1.00  0.00     0.011 C 
ENDBRANCH  24  25
ENDBRANCH  23  24
ENDBRANCH   1  23
TORSDOF 9
ENDMDL
MODEL 6
REMARK VINA RESULT:    -6.227     24.116     27.636
REMARK INTER + INTRA:         -10.515
REMARK INTER:                  -9.255
REMARK INTRA:                  -1.260
REMARK UNBOUND:                -1.011
REMARK  9 active torsions:
REMARK  status: ('A' for Active; 'I' for Inactive)
REMARK    1  A    between atoms: S_2  and  N_5 
REMARK    2  A    between atoms: C_7  and  C_8 
REMARK    3  A    between atoms: C_8  and  C_9 
REMARK    4  A    between atoms: C_9  and  C_15 
REMARK    5  A    between atoms: C_9  and  C_10 
REMARK    6  A    between atoms: C_10  and  C_11 
REMARK    7  A    between atoms: C_11  and  C_12 
REMARK    8  A    between atoms: C_15  and  C_16 
REMARK       I    between atoms: C_16  and  N_18 
REMARK    9  A    between atoms: N_18  and  C_20 
ROOT
HETATM    1  C   UNL     1       8.460  17.419   1.120  1.00  0.00     0.109 C 
ENDROOT
BRANCH   1   2
HETATM    2  C   UNL     1       8.998  16.295   1.283  1.00  0.00     0.011 C 
BRANCH   2   3
HETATM    3  C   UNL     1       9.163  15.261   1.891  1.00  0.00     0.097 C 
HETATM    4  N   UNL     1       8.896  14.096   2.225  1.00  0.00    -0.296 N 
ATOM      5  HN  UNL     1       8.608  13.443   1.496  1.00  0.00     0.177 HD
BRANCH   4   6
HETATM    6  S   UNL     1       8.976  13.556   3.727  1.00  0.00     0.226 S 
HETATM    7  C   UNL     1       7.673  14.416   4.564  1.00  0.00     0.186 C 
HETATM    8  O   UNL     1       8.697  12.139   3.797  1.00  0.00    -0.206 OA
HETATM    9  O   UNL     1      10.189  13.875   4.441  1.00  0.00    -0.206 OA
ENDBRANCH   4   6
ENDBRANCH   2   3
ENDBRANCH   1   2
BRANCH   1  10
HETATM   10  C   UNL     1       8.920  17.944   2.137  1.00  0.00    -0.071 C 
BRANCH  10  11
HETATM   11  C   UNL     1       9.480  18.373   3.246  1.00  0.00     0.289 C 
HETATM   12  O   UNL     1       8.816  18.367   4.188  1.00  0.00    -0.259 OA
HETATM   13  N   UNL     1      10.720  18.802   3.061  1.00  0.00    -0.315 N 
ATOM     14  HN  UNL     1      11.127  18.799   2.126  1.00  0.00     0.170 HD
BRANCH  13  15
HETATM   15  C   UNL     1      11.399  19.216   4.043  1.00  0.00     0.057 A 
HETATM   16  C   UNL     1      12.060  18.703   5.040  1.00  0.00     0.117 A 
HETATM   17  N   UNL     1      12.743  18.775   6.070  1.00  0.00    -0.373 N 
HETATM   18  C   UNL     1      12.809  20.097   6.161  1.00  0.00     0.088 A 
ATOM     19  HN  UNL     1      13.133  18.044   6.666  1.00  0.00     0.164 HD
HETATM   20  C   UNL     1      12.320  20.930   5.378  1.00  0.00     0.026 A 
HETATM   21  C   UNL     1      11.608  20.766   4.243  1.00  0.00    -0.033 A 
HETATM   22  C   UNL     1      11.026  21.876   3.277  1.00  0.00     0.050 C 
ENDBRANCH  13  15
ENDBRANCH  10  11
ENDBRANCH   1  10
BRANCH   1  23
HETATM   23  C   UNL     1       8.353  18.406  -0.141  1.00  0.00    -0.006 C 
BRANCH  23  24
HETATM   24  C   UNL     1       8.628  19.491  -0.192  1.00  0.00    -0.002 C 
BRANCH  24  25
HETATM   25  C   UNL     1       7.725  20.637  -0.326  1.00  0.00    -0.001 C 
HETATM   26  C   UNL     1       8.411  21.850  -0.152  1.00  0.00    -0.010 C 
HETATM   27  C   UNL     1       9.381  22.116  -0.016  1.00  0.00     0.011 C 
ENDBRANCH  24  25
ENDBRANCH  23  24
ENDBRANCH   1  23
TORSDOF 9
ENDMDL
MODEL 7
REMARK VINA RESULT:    -6.227      3.172      7.395
REMARK INTER + INTRA:         -10.514
REMARK INTER:                  -9.369
REMARK INTRA:                  -1.145
REMARK UNBOUND:                -1.011
REMARK  9 active torsions:
REMARK  status: ('A' for Active; 'I' for Inactive)
REMARK    1  A    between atoms: S_2  and  N_5 
REMARK    2  A    between atoms: C_7  and  C_8 
REMARK    3  A    between atoms: C_8  and  C_9 
REMARK    4  A    between atoms: C_9  and  C_15 
REMARK    5  A    between atoms: C_9  and  C_10 
REMARK    6  A    between atoms: C_10  and  C_11 
REMARK    7  A    between atoms: C_11  and  C_12 
REMARK    8  A    between atoms: C_15  and  C_16 
REMARK       I    between atoms: C_16  and  N_18 
REMARK    9  A    between atoms: N_18  and  C_20 
ROOT
HETATM    1  C   UNL     1       8.093  -2.316  22.142  1.00  0.00     0.109 C 
ENDROOT
BRANCH   1   2
HETATM    2  C   UNL     1       9.216  -2.111  22.668  1.00  0.00     0.011 C 
BRANCH   2   3
HETATM    3  C   UNL     1      10.187  -1.424  22.894  1.00  0.00     0.097 C 
HETATM    4  N   UNL     1      11.325  -1.191  23.330  1.00  0.00    -0.296 N 
ATOM      5  HN  UNL     1      12.048  -1.895  23.181  1.00  0.00     0.177 HD
BRANCH   4   6
HETATM    6  S   UNL     1      11.728   0.143  24.112  1.00  0.00     0.226 S 
HETATM    7  C   UNL     1      10.553   0.239  25.434  1.00  0.00     0.186 C 
HETATM    8  O   UNL     1      13.048   0.041  24.692  1.00  0.00    -0.206 OA
HETATM    9  O   UNL     1      11.590   1.369  23.365  1.00  0.00    -0.206 OA
ENDBRANCH   4   6
ENDBRANCH   2   3
ENDBRANCH   1   2
BRANCH   1  10
HETATM   10  C   UNL     1       7.790  -3.292  22.833  1.00  0.00    -0.071 C 
BRANCH  10  11
HETATM   11  C   UNL     1       7.361  -4.360  23.467  1.00  0.00     0.289 C 
HETATM   12  O   UNL     1       7.754  -5.373  23.083  1.00  0.00    -0.259 OA
HETATM   13  N   UNL     1       6.485  -4.073  24.419  1.00  0.00    -0.315 N 
ATOM     14  HN  UNL     1       6.196  -3.107  24.572  1.00  0.00     0.170 HD
BRANCH  13  15
HETATM   15  C   UNL     1       6.007  -4.996  25.138  1.00  0.00     0.057 A 
HETATM   16  C   UNL     1       6.291  -5.585  26.263  1.00  0.00     0.117 A 
HETATM   17  N   UNL     1       6.099  -6.421  27.155  1.00  0.00    -0.373 N 
HETATM   18  C   UNL     1       5.014  -6.992  26.647  1.00  0.00     0.088 A 
ATOM     19  HN  UNL     1       6.614  -6.613  28.014  1.00  0.00     0.164 HD
HETATM   20  C   UNL     1       4.426  -6.687  25.595  1.00  0.00     0.026 A 
HETATM   21  C   UNL     1       4.685  -5.726  24.683  1.00  0.00    -0.033 A 
HETATM   22  C   UNL     1       3.882  -5.377  23.366  1.00  0.00     0.050 C 
ENDBRANCH  13  15
ENDBRANCH  10  11
ENDBRANCH   1  10
BRANCH   1  23
HETATM   23  C   UNL     1       6.861  -1.351  21.788  1.00  0.00    -0.006 C 
BRANCH  23  24
HETATM   24  C   UNL     1       6.639  -0.845  20.813  1.00  0.00    -0.002 C 
BRANCH  24  25
HETATM   25  C   UNL     1       7.505   0.067  20.062  1.00  0.00    -0.001 C 
HETATM   26  C   UNL     1       6.923   0.430  18.837  1.00  0.00    -0.010 C 
HETATM   27  C   UNL     1       6.031   0.258  18.383  1.00  0.00     0.011 C 
ENDBRANCH  24  25
ENDBRANCH  23  24
ENDBRANCH   1  23
TORSDOF 9
ENDMDL
MODEL 8
REMARK VINA RESULT:    -6.160      4.567      6.566
REMARK INTER + INTRA:         -10.412
REMARK INTER:                  -9.399
REMARK INTRA:                  -1.013
REMARK UNBOUND:                -1.011
REMARK  9 active torsions:
REMARK  status: ('A' for Active; 'I' for Inactive)
REMARK    1  A    between atoms: S_2  and  N_5 
REMARK    2  A    between atoms: C_7  and  C_8 
REMARK    3  A    between atoms: C_8  and  C_9 
REMARK    4  A    between atoms: C_9  and  C_15 
REMARK    5  A    between atoms: C_9  and  C_10 
REMARK    6  A    between atoms: C_10  and  C_11 
REMARK    7  A    between atoms: C_11  and  C_12 
REMARK    8  A    between atoms: C_15  and  C_16 
REMARK       I    between atoms: C_16  and  N_18 
REMARK    9  A    between atoms: N_18  and  C_20 
ROOT
HETATM    1  C   UNL     1       7.756  -3.930  24.959  1.00  0.00     0.109 C 
ENDROOT
BRANCH   1   2
HETATM    2  C   UNL     1       8.030  -4.458  26.066  1.00  0.00     0.011 C 
BRANCH   2   3
HETATM    3  C   UNL     1       7.726  -5.045  27.080  1.00  0.00     0.097 C 
HETATM    4  N   UNL     1       7.559  -6.044  27.796  1.00  0.00    -0.296 N 
ATOM      5  HN  UNL     1       8.264  -6.779  27.764  1.00  0.00     0.177 HD
BRANCH   4   6
HETATM    6  S   UNL     1       6.304  -6.250  28.765  1.00  0.00     0.226 S 
HETATM    7  C   UNL     1       5.036  -5.244  28.047  1.00  0.00     0.186 C 
HETATM    8  O   UNL     1       5.848  -7.622  28.758  1.00  0.00    -0.206 OA
HETATM    9  O   UNL     1       6.475  -5.774  30.116  1.00  0.00    -0.206 OA
ENDBRANCH   4   6
ENDBRANCH   2   3
ENDBRANCH   1   2
BRANCH   1  10
HETATM   10  C   UNL     1       8.200  -2.810  25.223  1.00  0.00    -0.071 C 
BRANCH  10  11
HETATM   11  C   UNL     1       8.737  -1.619  25.369  1.00  0.00     0.289 C 
HETATM   12  O   UNL     1       8.862  -1.245  26.452  1.00  0.00    -0.259 OA
HETATM   13  N   UNL     1       8.988  -1.025  24.210  1.00  0.00    -0.315 N 
ATOM     14  HN  UNL     1       8.739  -1.488  23.336  1.00  0.00     0.170 HD
BRANCH  13  15
HETATM   15  C   UNL     1       9.534   0.114  24.189  1.00  0.00     0.057 A 
HETATM   16  C   UNL     1       9.177   1.355  24.348  1.00  0.00     0.117 A 
HETATM   17  N   UNL     1       9.392   2.574  24.380  1.00  0.00    -0.373 N 
HETATM   18  C   UNL     1      10.689   2.544  24.101  1.00  0.00     0.088 A 
ATOM     19  HN  UNL     1       8.766   3.359  24.565  1.00  0.00     0.164 HD
HETATM   20  C   UNL     1      11.394   1.539  23.908  1.00  0.00     0.026 A 
HETATM   21  C   UNL     1      11.085   0.225  23.925  1.00  0.00    -0.033 A 
HETATM   22  C   UNL     1      12.039  -1.014  23.686  1.00  0.00     0.050 C 
ENDBRANCH  13  15
ENDBRANCH  10  11
ENDBRANCH   1  10
BRANCH   1  23
HETATM   23  C   UNL     1       7.993  -4.391  23.440  1.00  0.00    -0.006 C 
BRANCH  23  24
HETATM   24  C   UNL     1       7.271  -4.345  22.585  1.00  0.00    -0.002 C 
BRANCH  24  25
HETATM   25  C   UNL     1       6.665  -5.468  21.865  1.00  0.00    -0.001 C 
HETATM   26  C   UNL     1       5.353  -5.708  22.305  1.00  0.00    -0.010 C 
HETATM   27  C   UNL     1       4.716  -5.255  22.954  1.00  0.00     0.011 C 
ENDBRANCH  24  25
ENDBRANCH  23  24
ENDBRANCH   1  23
TORSDOF 9
ENDMDL
MODEL 9
REMARK VINA RESULT:    -5.944     14.581     16.464
REMARK INTER + INTRA:         -10.081
REMARK INTER:                  -8.711
REMARK INTRA:                  -1.371
REMARK UNBOUND:                -1.011
REMARK  9 active torsions:
REMARK  status: ('A' for Active; 'I' for Inactive)
REMARK    1  A    between atoms: S_2  and  N_5 
REMARK    2  A    between atoms: C_7  and  C_8 
REMARK    3  A    between atoms: C_8  and  C_9 
REMARK    4  A    between atoms: C_9  and  C_15 
REMARK    5  A    between atoms: C_9  and  C_10 
REMARK    6  A    between atoms: C_10  and  C_11 
REMARK    7  A    between atoms: C_11  and  C_12 
REMARK    8  A    between atoms: C_15  and  C_16 
REMARK       I    between atoms: C_16  and  N_18 
REMARK    9  A    between atoms: N_18  and  C_20 
ROOT
HETATM    1  C   UNL     1      23.309  -1.751  23.505  1.00  0.00     0.109 C 
ENDROOT
BRANCH   1   2
HETATM    2  C   UNL     1      23.763  -2.737  24.138  1.00  0.00     0.011 C 
BRANCH   2   3
HETATM    3  C   UNL     1      23.685  -3.865  24.570  1.00  0.00     0.097 C 
HETATM    4  N   UNL     1      23.682  -4.735  25.455  1.00  0.00    -0.296 N 
ATOM      5  HN  UNL     1      23.189  -4.532  26.324  1.00  0.00     0.177 HD
BRANCH   4   6
HETATM    6  S   UNL     1      24.405  -6.154  25.317  1.00  0.00     0.226 S 
HETATM    7  C   UNL     1      26.109  -5.803  25.646  1.00  0.00     0.186 C 
HETATM    8  O   UNL     1      23.937  -7.087  26.317  1.00  0.00    -0.206 OA
HETATM    9  O   UNL     1      24.365  -6.748  24.003  1.00  0.00    -0.206 OA
ENDBRANCH   4   6
ENDBRANCH   2   3
ENDBRANCH   1   2
BRANCH   1  10
HETATM   10  C   UNL     1      23.953  -1.939  22.470  1.00  0.00    -0.071 C 
BRANCH  10  11
HETATM   11  C   UNL     1      24.523  -2.217  21.319  1.00  0.00     0.289 C 
HETATM   12  O   UNL     1      25.574  -1.776  21.149  1.00  0.00    -0.259 OA
HETATM   13  N   UNL     1      23.738  -2.925  20.518  1.00  0.00    -0.315 N 
ATOM     14  HN  UNL     1      22.794  -3.169  20.815  1.00  0.00     0.170 HD
BRANCH  13  15
HETATM   15  C   UNL     1      24.161  -3.297  19.387  1.00  0.00     0.057 A 
HETATM   16  C   UNL     1      24.816  -4.304  18.888  1.00  0.00     0.117 A 
HETATM   17  N   UNL     1      25.356  -4.926  17.963  1.00  0.00    -0.373 N 
HETATM   18  C   UNL     1      25.099  -4.068  16.984  1.00  0.00     0.088 A 
ATOM     19  HN  UNL     1      25.847  -5.820  17.957  1.00  0.00     0.164 HD
HETATM   20  C   UNL     1      24.471  -2.998  17.066  1.00  0.00     0.026 A 
HETATM   21  C   UNL     1      23.876  -2.400  18.121  1.00  0.00    -0.033 A 
HETATM   22  C   UNL     1      23.074  -1.038  18.155  1.00  0.00     0.050 C 
ENDBRANCH  13  15
ENDBRANCH  10  11
ENDBRANCH   1  10
BRANCH   1  23
HETATM   23  C   UNL     1      21.821  -1.200  23.263  1.00  0.00    -0.006 C 
BRANCH  23  24
HETATM   24  C   UNL     1      21.108  -0.785  24.022  1.00  0.00    -0.002 C 
BRANCH  24  25
HETATM   25  C   UNL     1      20.460  -1.500  25.124  1.00  0.00    -0.001 C 
HETATM   26  C   UNL     1      21.072  -1.204  26.353  1.00  0.00    -0.010 C 
HETATM   27  C   UNL     1      21.808  -0.576  26.659  1.00  0.00     0.011 C 
ENDBRANCH  24  25
ENDBRANCH  23  24
ENDBRANCH   1  23
TORSDOF 9
ENDMDL
