stable:False satoms:19 tatoms:24 sratio:0.7916666666666666
  -OEChem-07092417333D

 24 23  0     1  0  0  0  0  0999 V2000
    7.5552   -3.9840   25.2207 H   0  0  0  0  0  0  0  0  0  0  0  0
    7.6578   -3.3220   24.4720 N   0  0  0  0  0  0  0  0  0  0  0  0
    9.8000   -3.8851   25.4429 H   0  0  0  0  0  0  0  0  0  0  0  0
    9.7708   -2.2274   25.8168 H   0  0  0  0  0  0  0  0  0  0  0  0
    6.8915   -3.3618   23.8217 H   0  0  0  0  0  0  0  0  0  0  0  0
   10.7435   -2.8251   24.4549 H   0  0  0  0  0  0  0  0  0  0  0  0
    8.7159   -2.6662   24.0884 C   0  0  3  0  0  0  0  0  0  0  0  0
    9.8286   -2.8638   24.9604 C   0  0  0  0  0  0  0  0  0  0  0  0
   10.9831   -0.2712   23.6585 C   0  5  0  0  0  0  0  0  0  0  0  0
   12.7977    0.4802   23.5185 H   0  0  0  0  0  0  0  0  0  0  0  0
   12.1171   -0.2864   23.2796 C   0  0  0  0  0  0  0  0  0  0  0  0
   12.4390   -1.0969   22.6504 H   0  0  0  0  0  0  0  0  0  0  0  0
    8.5426   -1.8518   22.8952 C   0  0  0  0  0  0  0  0  0  0  0  0
   10.0448   -0.2834   23.7378 H   0  0  0  0  0  0  0  0  0  0  0  0
    8.4544   -1.0655   22.0199 C   0  0  0  0  0  0  0  0  0  0  0  0
    9.8316    0.6341   21.1242 O   0  0  0  0  0  0  0  0  0  0  0  0
    7.1633   -1.7092   22.0022 S   0  0  0  0  0  0  0  0  0  0  0  0
    8.7501    0.1440   21.0792 C   0  0  0  0  0  0  0  0  0  0  0  0
    6.9526   -0.2968   19.7084 O   0  0  0  0  0  0  0  0  0  0  0  0
    6.3772    1.2933   18.6451 H   0  0  0  0  0  0  0  0  0  0  0  0
    5.1693    0.0576   18.7267 H   0  0  0  0  0  0  0  0  0  0  0  0
    5.9050    0.5840   19.3082 C   0  0  0  0  0  0  0  0  0  0  0  0
    7.6718    0.5018   20.4395 N   0  0  0  0  0  0  0  0  0  0  0  0
    5.4210    1.0117   20.2257 H   0  0  0  0  0  0  0  0  0  0  0  0
 20 22  1  0  0  0  0
 21 22  1  0  0  0  0
 19 22  1  0  0  0  0
 22 24  1  0  0  0  0
 19 23  1  0  0  0  0
 18 23  1  0  0  0  0
 16 18  2  0  0  0  0
 15 18  1  0  0  0  0
 15 17  1  0  0  0  0
 13 17  1  0  0  0  0
 13 15  2  0  0  0  0
 11 12  1  0  0  0  0
  7 13  1  0  0  0  0
 10 11  1  0  0  0  0
  9 11  2  0  0  0  0
  9 14  1  0  0  0  0
  2  5  1  0  0  0  0
  2  7  1  0  0  0  0
  7  8  1  0  0  0  0
  6  8  1  0  0  0  0
  1  2  1  0  0  0  0
  3  8  1  0  0  0  0
  4  8  1  0  0  0  0
M  CHG  1   9  -1
M  END
> <Shapegauss>
-142.076141

$$$$
