REMARK  10 active torsions:
REMARK  status: ('A' for Active; 'I' for Inactive)
REMARK    1  A    between atoms: S_2  and  N_5 
REMARK    2  A    between atoms: C_7  and  C_8 
REMARK    3  A    between atoms: C_8  and  C_9 
REMARK    4  A    between atoms: C_9  and  C_15 
REMARK    5  A    between atoms: C_9  and  C_14 
REMARK    6  A    between atoms: C_11  and  C_12 
REMARK    7  A    between atoms: C_12  and  C_13 
REMARK    8  A    between atoms: C_13  and  C_14 
REMARK    9  A    between atoms: C_15  and  C_16 
REMARK       I    between atoms: C_16  and  N_18 
REMARK   10  A    between atoms: N_18  and  C_20 
ROOT
HETATM    1  C   UNL     1      10.287  -1.207  23.189  1.00  0.00     0.108 C 
ENDROOT
BRANCH   1   2
HETATM    2  C   UNL     1       9.431  -1.996  23.544  1.00  0.00     0.011 C 
BRANCH   2   3
HETATM    3  C   UNL     1       8.931  -2.905  24.142  1.00  0.00     0.097 C 
HETATM    4  N   UNL     1       8.088  -3.567  24.672  1.00  0.00    -0.296 N 
ATOM      5  HN  UNL     1       7.198  -3.671  24.184  1.00  0.00     0.177 HD
BRANCH   4   6
HETATM    6  S   UNL     1       8.244  -4.309  26.096  1.00  0.00     0.226 S 
HETATM    7  C   UNL     1       6.547  -4.872  26.486  1.00  0.00     0.186 C 
HETATM    8  O   UNL     1       9.067  -5.484  25.988  1.00  0.00    -0.206 OA
HETATM    9  O   UNL     1       8.637  -3.447  27.155  1.00  0.00    -0.206 OA
ENDBRANCH   4   6
ENDBRANCH   2   3
ENDBRANCH   1   2
BRANCH   1  10
HETATM   10  C   UNL     1       9.719  -0.588  22.319  1.00  0.00    -0.071 C 
BRANCH  10  11
HETATM   11  C   UNL     1       9.085   0.069  21.382  1.00  0.00     0.289 C 
HETATM   12  O   UNL     1       9.588   1.018  21.027  1.00  0.00    -0.259 OA
HETATM   13  N   UNL     1       7.936  -0.554  21.052  1.00  0.00    -0.315 N 
ATOM     14  HN  UNL     1       7.658  -1.417  21.520  1.00  0.00     0.170 HD
BRANCH  13  15
HETATM   15  C   UNL     1       7.229  -0.060  20.174  1.00  0.00     0.057 A 
HETATM   16  C   UNL     1       7.249   0.056  18.892  1.00  0.00     0.117 A 
HETATM   17  N   UNL     1       6.748   0.351  17.757  1.00  0.00    -0.373 N 
HETATM   18  C   UNL     1       5.659   0.840  18.276  1.00  0.00     0.088 A 
ATOM     19  HN  UNL     1       7.078   0.244  16.798  1.00  0.00     0.164 HD
HETATM   20  C   UNL     1       5.213   0.967  19.389  1.00  0.00     0.026 A 
HETATM   21  C   UNL     1       5.800   0.593  20.548  1.00  0.00    -0.033 A 
HETATM   22  C   UNL     1       5.299   0.734  21.930  1.00  0.00     0.050 C 
ENDBRANCH  13  15
ENDBRANCH  10  11
ENDBRANCH   1  10
BRANCH   1  23
HETATM   23  C   UNL     1      11.850  -1.753  22.521  1.00  0.00    -0.010 C 
BRANCH  23  24
HETATM   24  C   UNL     1      12.730  -1.320  22.646  1.00  0.00    -0.025 C 
BRANCH  24  25
HETATM   25  C   UNL     1      13.091  -0.128  23.585  1.00  0.00     0.053 C 
BRANCH  25  26
HETATM   26  C   UNL     1      12.104   0.258  24.223  1.00  0.00    -0.033 C 
HETATM   27  C   UNL     1      11.050   0.015  24.304  1.00  0.00     0.007 C 
ENDBRANCH  25  26
ENDBRANCH  24  25
ENDBRANCH  23  24
ENDBRANCH   1  23
TORSDOF 10
