stable:False satoms:21 tatoms:24 sratio:0.875
  -OEChem-07092417363D

 24 24  0     1  0  0  0  0  0999 V2000
    8.3766   -3.5782   25.9149 C   0  0  0  0  0  0  0  0  0  0  0  0
    8.7467   -2.7029   26.3598 H   0  0  0  0  0  0  0  0  0  0  0  0
    8.3812   -3.6683   24.6318 C   0  0  0  0  0  0  0  0  0  0  0  0
    8.0631   -4.3162   26.5806 H   0  0  0  0  0  0  0  0  0  0  0  0
    7.4784   -3.8825   24.0927 H   0  0  0  0  0  0  0  0  0  0  0  0
    9.3828   -2.0785   23.3967 C   0  0  3  0  0  0  0  0  0  0  0  0
    9.4118   -3.3355   23.7529 O   0  0  0  0  0  0  0  0  0  0  0  0
   11.1961   -1.3774   23.2629 C   0  0  0  0  0  0  0  0  0  0  0  0
   10.1478   -1.2678   24.0922 O   0  0  0  0  0  0  0  0  0  0  0  0
   12.1537    0.0968   24.4328 H   0  0  0  0  0  0  0  0  0  0  0  0
   11.9286   -0.0847   23.3940 C   0  0  0  0  0  0  0  0  0  0  0  0
   12.8372   -0.1373   22.8298 H   0  0  0  0  0  0  0  0  0  0  0  0
   11.5829   -2.2989   22.6005 O   0  0  0  0  0  0  0  0  0  0  0  0
   11.2217    0.6531   23.0379 H   0  0  0  0  0  0  0  0  0  0  0  0
    8.6857   -1.4379   22.3645 C   0  0  0  0  0  0  0  0  0  0  0  0
    6.9732    0.9406   21.2118 O   0  0  0  0  0  0  0  0  0  0  0  0
    7.9633   -0.9867   21.7112 N   0  3  0  0  0  0  0  0  0  0  0  0
    7.2394   -0.3408   19.4352 C   0  0  0  0  0  0  0  0  0  0  0  0
    6.1060    0.3512   19.2246 C   0  0  0  0  0  0  0  0  0  0  0  0
    7.8740   -0.8065   18.7284 H   0  0  0  0  0  0  0  0  0  0  0  0
    5.5269    0.4478   18.3236 H   0  0  0  0  0  0  0  0  0  0  0  0
    5.0363    1.6737   20.6813 H   0  0  0  0  0  0  0  0  0  0  0  0
    7.4154   -0.1951   20.8187 C   0  0  0  0  0  0  0  0  0  0  0  0
    5.8552    1.0416   20.4181 C   0  0  0  0  0  0  0  0  0  0  0  0
 19 21  1  0  0  0  0
 18 20  1  0  0  0  0
 18 19  1  0  0  0  0
 19 24  2  0  0  0  0
 18 23  2  0  0  0  0
 22 24  1  0  0  0  0
 16 24  1  0  0  0  0
 16 23  1  0  0  0  0
 17 23  1  0  0  0  0
 15 17  3  0  0  0  0
  6 15  1  0  0  0  0
  8 13  2  0  0  0  0
 11 12  1  0  0  0  0
 11 14  1  0  0  0  0
  8 11  1  0  0  0  0
  8  9  1  0  0  0  0
 10 11  1  0  0  0  0
  6  7  1  0  0  0  0
  6  9  1  0  0  0  0
  3  7  1  0  0  0  0
  3  5  1  0  0  0  0
  1  3  2  0  0  0  0
  1  2  1  0  0  0  0
  1  4  1  0  0  0  0
M  CHG  1  17   1
M  END
> <Shapegauss>
-162.132141

$$$$
