stable:False satoms:6 tatoms:24 sratio:0.25
  -OEChem-08062413023D

 42 42  0     0  0  0  0  0  0999 V2000
   -6.4730   -5.1256  -26.1822 C   0  0  0  0  0  0  0  0  0  0  0  0
   -7.9839   -4.5250  -26.0139 S   0  0  0  0  0  0  0  0  0  0  0  0
   -8.8819   -5.6245  -25.9696 O   0  0  0  0  0  0  0  0  0  0  0  0
   -8.2724   -3.6163  -27.0863 O   0  0  0  0  0  0  0  0  0  0  0  0
   -8.0086   -3.7259  -24.5896 N   0  0  0  0  0  0  0  0  0  0  0  0
   -8.8689   -3.0548  -24.1756 C   0  0  0  0  0  0  0  0  0  0  0  0
   -9.2957   -2.1136  -23.6963 C   0  0  0  0  0  0  0  0  0  0  0  0
   -9.9600   -1.0052  -23.5820 C   0  0  0  0  0  0  0  0  0  0  0  0
  -10.8210   -0.1195  -24.5672 C   0  0  0  0  0  0  0  0  0  0  0  0
  -11.8272    0.1690  -24.5623 C   0  0  0  0  0  0  0  0  0  0  0  0
  -12.9389   -0.3120  -23.7757 C   0  0  0  0  0  0  0  0  0  0  0  0
  -12.6669   -1.1727  -23.0573 C   0  0  0  0  0  0  0  0  0  0  0  0
  -12.0525   -1.8000  -22.6284 C   0  0  0  0  0  0  0  0  0  0  0  0
   -9.6187   -0.6369  -22.5638 C   0  0  0  0  0  0  0  0  0  0  0  0
   -9.0018    0.0627  -21.5484 C   0  0  0  0  0  0  0  0  0  0  0  0
   -9.4591    1.0665  -21.2365 O   0  0  0  0  0  0  0  0  0  0  0  0
   -7.9161   -0.5608  -21.1639 N   0  0  0  0  0  0  0  0  0  0  0  0
   -7.2030   -0.0593  -20.2696 C   0  0  0  0  0  0  0  0  0  0  0  0
   -7.3091    0.1116  -18.9887 C   0  0  0  0  0  0  0  0  0  0  0  0
   -6.9612    0.4308  -17.8530 N   0  0  0  0  0  0  0  0  0  0  0  0
   -5.8251    0.9331  -18.3010 C   0  0  0  0  0  0  0  0  0  0  0  0
   -5.3184    0.9481  -19.4062 C   0  0  0  0  0  0  0  0  0  0  0  0
   -5.8030    0.5095  -20.5654 C   0  0  0  0  0  0  0  0  0  0  0  0
   -5.1263    0.5675  -22.0509 Br  0  0  0  0  0  0  0  0  0  0  0  0
   -6.4007   -5.6769  -27.1314 H   0  0  0  0  0  0  0  0  0  0  0  0
   -5.7477   -4.2986  -26.1825 H   0  0  0  0  0  0  0  0  0  0  0  0
   -6.2535   -5.8055  -25.3458 H   0  0  0  0  0  0  0  0  0  0  0  0
   -7.2062   -3.1297  -24.6148 H   0  0  0  0  0  0  0  0  0  0  0  0
   -9.7469   -3.6630  -24.3354 H   0  0  0  0  0  0  0  0  0  0  0  0
   -8.8847   -2.1980  -22.7011 H   0  0  0  0  0  0  0  0  0  0  0  0
  -10.2630    0.2624  -25.4094 H   0  0  0  0  0  0  0  0  0  0  0  0
  -12.0747    0.9555  -25.2599 H   0  0  0  0  0  0  0  0  0  0  0  0
  -13.7204   -0.6686  -24.4628 H   0  0  0  0  0  0  0  0  0  0  0  0
  -13.3293    0.5260  -23.1796 H   0  0  0  0  0  0  0  0  0  0  0  0
  -13.6181   -1.4248  -22.6123 H   0  0  0  0  0  0  0  0  0  0  0  0
  -12.4235   -2.5080  -21.9022 H   0  0  0  0  0  0  0  0  0  0  0  0
  -11.0025   -1.7853  -22.8807 H   0  0  0  0  0  0  0  0  0  0  0  0
  -10.1765   -1.3323  -21.9542 H   0  0  0  0  0  0  0  0  0  0  0  0
   -7.6600   -1.4318  -21.5833 H   0  0  0  0  0  0  0  0  0  0  0  0
   -8.3146   -0.2403  -18.8109 H   0  0  0  0  0  0  0  0  0  0  0  0
   -5.2339    1.4237  -17.5419 H   0  0  0  0  0  0  0  0  0  0  0  0
   -4.3300    1.3808  -19.4541 H   0  0  0  0  0  0  0  0  0  0  0  0
 20 21  2  0  0  0  0
 19 20  1  0  0  0  0
 21 22  1  0  0  0  0
 18 19  2  0  0  0  0
 22 23  2  0  0  0  0
 18 23  1  0  0  0  0
 17 18  1  0  0  0  0
 23 24  1  0  0  0  0
 15 16  2  0  0  0  0
 15 17  1  0  0  0  0
 14 15  1  0  0  0  0
 12 13  2  0  0  0  0
  8 14  2  3  0  0  0
 11 12  1  0  0  0  0
 10 11  1  0  0  0  0
  7  8  1  0  0  0  0
  8  9  1  0  0  0  0
  6  7  2  3  0  0  0
  5  6  1  0  0  0  0
  9 10  2  0  0  0  0
  2  5  1  0  0  0  0
  2  3  2  0  0  0  0
  1  2  1  0  0  0  0
  2  4  2  0  0  0  0
  1 25  1  0  0  0  0
  1 26  1  0  0  0  0
  1 27  1  0  0  0  0
  5 28  1  0  0  0  0
  6 29  1  0  0  0  0
  7 30  1  0  0  0  0
  9 31  1  0  0  0  0
 10 32  1  0  0  0  0
 11 33  1  0  0  0  0
 11 34  1  0  0  0  0
 12 35  1  0  0  0  0
 13 36  1  0  0  0  0
 13 37  1  0  0  0  0
 14 38  1  0  0  0  0
 17 39  1  0  0  0  0
 19 40  1  0  0  0  0
 21 41  1  0  0  0  0
 22 42  1  0  0  0  0
M  END
> <Chemgauss4>
-12.925805

$$$$
