stable:False satoms:6 tatoms:24 sratio:0.25
  -OEChem-08062413023D

 42 42  0     0  0  0  0  0  0999 V2000
    6.5828   -5.1815   26.2577 C   0  0  0  0  0  0  0  0  0  0  0  0
    8.0937   -4.5810   26.0894 S   0  0  0  0  0  0  0  0  0  0  0  0
    8.9917   -5.6804   26.0451 O   0  0  0  0  0  0  0  0  0  0  0  0
    8.3822   -3.6723   27.1618 O   0  0  0  0  0  0  0  0  0  0  0  0
    8.1184   -3.7819   24.6651 N   0  0  0  0  0  0  0  0  0  0  0  0
    8.9787   -3.1107   24.2511 C   0  0  0  0  0  0  0  0  0  0  0  0
    9.4055   -2.1696   23.7718 C   0  0  0  0  0  0  0  0  0  0  0  0
   10.0699   -1.0612   23.6575 C   0  0  0  0  0  0  0  0  0  0  0  0
   10.9309   -0.1755   24.6427 C   0  0  0  0  0  0  0  0  0  0  0  0
   11.9370    0.1131   24.6378 C   0  0  0  0  0  0  0  0  0  0  0  0
   13.0487   -0.3679   23.8512 C   0  0  0  0  0  0  0  0  0  0  0  0
   12.7767   -1.2286   23.1328 C   0  0  0  0  0  0  0  0  0  0  0  0
   12.1623   -1.8559   22.7039 C   0  0  0  0  0  0  0  0  0  0  0  0
    9.7285   -0.6928   22.6393 C   0  0  0  0  0  0  0  0  0  0  0  0
    9.1116    0.0068   21.6239 C   0  0  0  0  0  0  0  0  0  0  0  0
    9.5689    1.0106   21.3120 O   0  0  0  0  0  0  0  0  0  0  0  0
    8.0259   -0.6168   21.2394 N   0  0  0  0  0  0  0  0  0  0  0  0
    7.3129   -0.1153   20.3451 C   0  0  0  0  0  0  0  0  0  0  0  0
    7.4190    0.0557   19.0642 C   0  0  0  0  0  0  0  0  0  0  0  0
    7.0710    0.3749   17.9285 N   0  0  0  0  0  0  0  0  0  0  0  0
    5.9349    0.8772   18.3765 C   0  0  0  0  0  0  0  0  0  0  0  0
    5.4282    0.8921   19.4817 C   0  0  0  0  0  0  0  0  0  0  0  0
    5.9128    0.4536   20.6409 C   0  0  0  0  0  0  0  0  0  0  0  0
    5.2361    0.5115   22.1264 Br  0  0  0  0  0  0  0  0  0  0  0  0
    6.5105   -5.7328   27.2069 H   0  0  0  0  0  0  0  0  0  0  0  0
    5.8576   -4.3545   26.2580 H   0  0  0  0  0  0  0  0  0  0  0  0
    6.3633   -5.8614   25.4213 H   0  0  0  0  0  0  0  0  0  0  0  0
    7.3160   -3.1857   24.6903 H   0  0  0  0  0  0  0  0  0  0  0  0
    9.8568   -3.7190   24.4109 H   0  0  0  0  0  0  0  0  0  0  0  0
    8.9945   -2.2539   22.7766 H   0  0  0  0  0  0  0  0  0  0  0  0
   10.3729    0.2064   25.4849 H   0  0  0  0  0  0  0  0  0  0  0  0
   12.1845    0.8996   25.3354 H   0  0  0  0  0  0  0  0  0  0  0  0
   13.8302   -0.7245   24.5383 H   0  0  0  0  0  0  0  0  0  0  0  0
   13.4391    0.4701   23.2551 H   0  0  0  0  0  0  0  0  0  0  0  0
   13.7279   -1.4807   22.6878 H   0  0  0  0  0  0  0  0  0  0  0  0
   12.5333   -2.5639   21.9777 H   0  0  0  0  0  0  0  0  0  0  0  0
   11.1123   -1.8412   22.9562 H   0  0  0  0  0  0  0  0  0  0  0  0
   10.2863   -1.3882   22.0297 H   0  0  0  0  0  0  0  0  0  0  0  0
    7.7699   -1.4877   21.6588 H   0  0  0  0  0  0  0  0  0  0  0  0
    8.4244   -0.2963   18.8864 H   0  0  0  0  0  0  0  0  0  0  0  0
    5.3437    1.3677   17.6174 H   0  0  0  0  0  0  0  0  0  0  0  0
    4.4399    1.3248   19.5296 H   0  0  0  0  0  0  0  0  0  0  0  0
 20 21  2  0  0  0  0
 19 20  1  0  0  0  0
 21 22  1  0  0  0  0
 18 19  2  0  0  0  0
 22 23  2  0  0  0  0
 18 23  1  0  0  0  0
 17 18  1  0  0  0  0
 23 24  1  0  0  0  0
 15 16  2  0  0  0  0
 15 17  1  0  0  0  0
 14 15  1  0  0  0  0
 12 13  2  0  0  0  0
  8 14  2  3  0  0  0
 11 12  1  0  0  0  0
 10 11  1  0  0  0  0
  7  8  1  0  0  0  0
  8  9  1  0  0  0  0
  6  7  2  3  0  0  0
  5  6  1  0  0  0  0
  9 10  2  0  0  0  0
  2  5  1  0  0  0  0
  2  3  2  0  0  0  0
  1  2  1  0  0  0  0
  2  4  2  0  0  0  0
  1 25  1  0  0  0  0
  1 26  1  0  0  0  0
  1 27  1  0  0  0  0
  5 28  1  0  0  0  0
  6 29  1  0  0  0  0
  7 30  1  0  0  0  0
  9 31  1  0  0  0  0
 10 32  1  0  0  0  0
 11 33  1  0  0  0  0
 11 34  1  0  0  0  0
 12 35  1  0  0  0  0
 13 36  1  0  0  0  0
 13 37  1  0  0  0  0
 14 38  1  0  0  0  0
 17 39  1  0  0  0  0
 19 40  1  0  0  0  0
 21 41  1  0  0  0  0
 22 42  1  0  0  0  0
M  END
> <Chemgauss4>
-12.931103

$$$$
