stable:False satoms:19 tatoms:24 sratio:0.7916666666666666
  -OEChem-07092417363D

 24 24  0     1  0  0  0  0  0999 V2000
    8.7336   -3.4001   24.9649 C   0  0  0  0  0  0  0  0  0  0  0  0
    8.7366   -3.4966   26.0494 H   0  0  0  0  0  0  0  0  0  0  0  0
    9.0577   -4.3747   24.5911 H   0  0  0  0  0  0  0  0  0  0  0  0
    7.7165   -2.1161   24.9183 H   0  0  0  0  0  0  0  0  0  0  0  0
    7.5795   -2.9912   24.3891 O   0  0  0  0  0  0  0  0  0  0  0  0
    9.8770   -2.2654   24.4320 C   0  0  0  0  0  0  0  0  0  0  0  0
    9.8754   -1.5433   23.1861 N   0  0  3  0  0  0  0  0  0  0  0  0
   10.8065   -2.8022   24.4692 H   0  0  0  0  0  0  0  0  0  0  0  0
    9.8880   -1.4789   25.2077 H   0  0  0  0  0  0  0  0  0  0  0  0
   11.4453   -0.3661   24.0481 H   0  0  0  0  0  0  0  0  0  0  0  0
   11.9955   -1.5016   22.8133 H   0  0  0  0  0  0  0  0  0  0  0  0
   11.1991   -0.8364   23.0979 C   0  0  0  0  0  0  0  0  0  0  0  0
   11.0791   -0.0830   22.3429 H   0  0  0  0  0  0  0  0  0  0  0  0
    8.9999   -1.1752   22.2369 C   0  0  0  0  0  0  0  0  0  0  0  0
    7.1097   -0.1646   21.8845 C   0  0  0  0  0  0  0  0  0  0  0  0
    9.7110   -0.7712   20.2046 H   0  0  0  0  0  0  0  0  0  0  0  0
    8.9141   -0.7391   20.9141 C   0  0  0  0  0  0  0  0  0  0  0  0
    6.8966    0.5182   19.5576 C   0  0  0  0  0  0  0  0  0  0  0  0
    7.6944   -1.1365   22.4961 O   0  0  0  0  0  0  0  0  0  0  0  0
    7.4009    0.4797   17.9408 Cl  0  0  0  0  0  0  0  0  0  0  0  0
    5.1279    1.5412   18.9800 H   0  0  0  0  0  0  0  0  0  0  0  0
    5.8430    1.1098   19.5606 C   0  5  0  0  0  0  0  0  0  0  0  0
    7.6038   -0.0786   20.6656 C   0  0  0  0  0  0  0  0  0  0  0  0
    6.2929    0.3818   22.3457 H   0  0  0  0  0  0  0  0  0  0  0  0
 18 20  1  0  0  0  0
 21 22  1  0  0  0  0
 18 22  2  0  0  0  0
 18 23  1  0  0  0  0
 16 17  1  0  0  0  0
 17 23  1  0  0  0  0
 15 23  2  0  0  0  0
 14 17  2  0  0  0  0
 15 24  1  0  0  0  0
 15 19  1  0  0  0  0
 14 19  1  0  0  0  0
  7 14  1  0  0  0  0
 12 13  1  0  0  0  0
 11 12  1  0  0  0  0
  7 12  1  0  0  0  0
 10 12  1  0  0  0  0
  6  7  1  0  0  0  0
  4  5  1  0  0  0  0
  1  5  1  0  0  0  0
  6  8  1  0  0  0  0
  1  6  1  0  0  0  0
  6  9  1  0  0  0  0
  1  3  1  0  0  0  0
  1  2  1  0  0  0  0
M  CHG  1  22  -1
M  END
> <Shapegauss>
-137.662781

$$$$
