stable:False satoms:19 tatoms:24 sratio:0.7916666666666666
  -OEChem-08062401283D

 25 25  0     1  0  0  0  0  0999 V2000
   10.7172    2.9799   23.6013 C   0  0  0  0  0  0  0  0  0  0  0  0
   11.1149    3.8057   23.0136 H   0  0  0  0  0  0  0  0  0  0  0  0
   10.5341    3.3988   24.5941 H   0  0  0  0  0  0  0  0  0  0  0  0
   10.2386    2.0815   22.3171 H   0  0  0  0  0  0  0  0  0  0  0  0
    9.6297    2.3440   23.1076 O   0  0  0  0  0  0  0  0  0  0  0  0
   11.8589    1.7397   23.7951 C   0  0  0  0  0  0  0  0  0  0  0  0
   11.6013    0.3544   24.0919 N   0  0  3  0  0  0  0  0  0  0  0  0
   12.5000    2.1023   24.5768 H   0  0  0  0  0  0  0  0  0  0  0  0
   12.4276    1.7189   22.8483 H   0  0  0  0  0  0  0  0  0  0  0  0
   13.6721    0.0360   23.6404 H   0  0  0  0  0  0  0  0  0  0  0  0
   13.2932   -0.0425   25.3629 H   0  0  0  0  0  0  0  0  0  0  0  0
   12.9346   -0.2789   24.3764 C   0  0  0  0  0  0  0  0  0  0  0  0
   12.7782   -1.3380   24.2999 H   0  0  0  0  0  0  0  0  0  0  0  0
   10.5936   -0.5270   23.9881 C   0  0  0  0  0  0  0  0  0  0  0  0
    9.1549   -1.3996   22.6144 C   0  0  0  0  0  0  0  0  0  0  0  0
   10.5375   -2.2700   25.3139 H   0  0  0  0  0  0  0  0  0  0  0  0
   10.1408   -1.7575   24.4657 C   0  0  0  0  0  0  0  0  0  0  0  0
    8.2776   -3.5008   23.4755 C   0  0  0  0  0  0  0  0  0  0  0  0
    9.5843   -0.3079   23.1477 O   0  0  0  0  0  0  0  0  0  0  0  0
    8.0637   -4.6273   24.7225 Cl  0  0  0  0  0  0  0  0  0  0  0  0
    7.5065   -3.2928   21.6606 H   0  0  0  0  0  0  0  0  0  0  0  0
    7.5632   -3.8682   22.5728 C   0  0  0  0  0  0  0  0  0  0  0  0
    9.1289   -2.3367   23.5409 C   0  0  0  0  0  0  0  0  0  0  0  0
    8.8098   -1.4268   21.5855 H   0  0  0  0  0  0  0  0  0  0  0  0
    6.9813   -4.7719   22.6783 H   0  0  0  0  0  0  0  0  0  0  0  0
 18 20  1  0  0  0  0
 21 22  1  0  0  0  0
 18 22  2  0  0  0  0
 18 23  1  0  0  0  0
 16 17  1  0  0  0  0
 17 23  1  0  0  0  0
 15 23  2  0  0  0  0
 14 17  2  0  0  0  0
 15 24  1  0  0  0  0
 15 19  1  0  0  0  0
 14 19  1  0  0  0  0
  7 14  1  0  0  0  0
 12 13  1  0  0  0  0
 11 12  1  0  0  0  0
  7 12  1  0  0  0  0
 10 12  1  0  0  0  0
  6  7  1  0  0  0  0
  4  5  1  0  0  0  0
  1  5  1  0  0  0  0
  6  8  1  0  0  0  0
  1  6  1  0  0  0  0
  6  9  1  0  0  0  0
  1  3  1  0  0  0  0
  1  2  1  0  0  0  0
 22 25  1  0  0  0  0
M  END
> <Chemgauss4>
-6.159265

$$$$
