stable:False satoms:19 tatoms:24 sratio:0.7916666666666666
  -OEChem-08062401283D

 25 25  0     1  0  0  0  0  0999 V2000
   -9.8852    6.1560  -23.4198 C   0  0  0  0  0  0  0  0  0  0  0  0
   -9.9538    7.1454  -23.8691 H   0  0  0  0  0  0  0  0  0  0  0  0
   -9.3473    6.3062  -22.4803 H   0  0  0  0  0  0  0  0  0  0  0  0
  -11.1257    5.5047  -24.2697 H   0  0  0  0  0  0  0  0  0  0  0  0
  -11.0449    5.4822  -23.2413 O   0  0  0  0  0  0  0  0  0  0  0  0
   -8.9447    5.1027  -24.3605 C   0  0  0  0  0  0  0  0  0  0  0  0
   -8.9834    3.6632  -24.3622 N   0  0  3  0  0  0  0  0  0  0  0  0
   -7.9348    5.3778  -24.1201 H   0  0  0  0  0  0  0  0  0  0  0  0
   -9.1520    5.3863  -25.4079 H   0  0  0  0  0  0  0  0  0  0  0  0
   -7.7506    3.7894  -26.1108 H   0  0  0  0  0  0  0  0  0  0  0  0
   -6.8886    3.2661  -24.6617 H   0  0  0  0  0  0  0  0  0  0  0  0
   -7.8203    3.2035  -25.1962 C   0  0  0  0  0  0  0  0  0  0  0  0
   -8.0216    2.1777  -25.4395 H   0  0  0  0  0  0  0  0  0  0  0  0
   -9.8317    2.6784  -24.0253 C   0  0  0  0  0  0  0  0  0  0  0  0
  -11.8467    1.9188  -24.3103 C   0  0  0  0  0  0  0  0  0  0  0  0
   -9.0463    0.6959  -23.5232 H   0  0  0  0  0  0  0  0  0  0  0  0
   -9.8904    1.3159  -23.7295 C   0  0  0  0  0  0  0  0  0  0  0  0
  -11.9943   -0.4346  -23.7056 C   0  0  0  0  0  0  0  0  0  0  0  0
  -11.1366    2.9168  -23.9098 O   0  0  0  0  0  0  0  0  0  0  0  0
  -11.3593   -1.8320  -22.9886 Cl  0  0  0  0  0  0  0  0  0  0  0  0
  -13.7708    0.0502  -24.4406 H   0  0  0  0  0  0  0  0  0  0  0  0
  -13.1395   -0.6989  -23.9859 C   0  0  0  0  0  0  0  0  0  0  0  0
  -11.2791    0.8055  -23.8911 C   0  0  0  0  0  0  0  0  0  0  0  0
  -12.7898    2.0689  -24.8263 H   0  0  0  0  0  0  0  0  0  0  0  0
  -13.5319   -1.6842  -23.7818 H   0  0  0  0  0  0  0  0  0  0  0  0
 18 20  1  0  0  0  0
 21 22  1  0  0  0  0
 18 22  2  0  0  0  0
 18 23  1  0  0  0  0
 16 17  1  0  0  0  0
 17 23  1  0  0  0  0
 15 23  2  0  0  0  0
 14 17  2  0  0  0  0
 15 24  1  0  0  0  0
 15 19  1  0  0  0  0
 14 19  1  0  0  0  0
  7 14  1  0  0  0  0
 12 13  1  0  0  0  0
 11 12  1  0  0  0  0
  7 12  1  0  0  0  0
 10 12  1  0  0  0  0
  6  7  1  0  0  0  0
  4  5  1  0  0  0  0
  1  5  1  0  0  0  0
  6  8  1  0  0  0  0
  1  6  1  0  0  0  0
  6  9  1  0  0  0  0
  1  3  1  0  0  0  0
  1  2  1  0  0  0  0
 22 25  1  0  0  0  0
M  END
> <Chemgauss4>
-6.143136

$$$$
