stable:False satoms:12 tatoms:24 sratio:0.5
  -OEChem-07092417373D

 24 26  0     0  0  0  0  0  0999 V2000
    7.2747   -4.7144   26.3460 H   0  0  0  0  0  0  0  0  0  0  0  0
    8.2982   -4.3295   26.1796 C   0  0  0  0  0  0  0  0  0  0  0  0
    8.9550   -5.2057   26.1919 H   0  0  0  0  0  0  0  0  0  0  0  0
    8.5111   -3.7073   27.0617 H   0  0  0  0  0  0  0  0  0  0  0  0
    8.5135   -3.5781   25.0778 C   0  0  0  0  0  0  0  0  0  0  0  0
    8.9384   -2.7510   24.4044 C   0  0  0  0  0  0  0  0  0  0  0  0
    8.9205   -1.7230   23.5583 N   0  0  0  0  0  0  0  0  0  0  0  0
   10.1593   -1.7198   23.6274 C   0  0  0  0  0  0  0  0  0  0  0  0
   11.0040    0.1444   23.1312 O   0  0  0  0  0  0  0  0  0  0  0  0
   12.5181   -0.2473   24.2560 H   0  0  0  0  0  0  0  0  0  0  0  0
   12.0488   -0.7399   23.3989 C   0  0  0  0  0  0  0  0  0  0  0  0
   12.8543   -0.9744   22.6671 H   0  0  0  0  0  0  0  0  0  0  0  0
   11.3286   -1.8282   23.6073 C   0  0  0  0  0  0  0  0  0  0  0  0
   10.0851    0.0452   22.1868 C   0  0  0  0  0  0  0  0  0  0  0  0
    9.0790    0.0092   21.3963 C   0  0  0  0  0  0  0  0  0  0  0  0
    9.8117    0.9414   21.2064 O   0  0  0  0  0  0  0  0  0  0  0  0
    7.8812   -0.5794   20.9344 N   0  0  0  0  0  0  0  0  0  0  0  0
    7.1276   -0.0094   20.0299 C   0  0  0  0  0  0  0  0  0  0  0  0
    7.3243   -0.0608   18.6872 N   0  0  0  0  0  0  0  0  0  0  0  0
    6.6172    0.4606   17.7431 N   0  0  0  0  0  0  0  0  0  0  0  0
    5.7183    0.8634   18.3729 C   0  0  0  0  0  0  0  0  0  0  0  0
    5.1452    1.0267   19.4245 N   0  0  0  0  0  0  0  0  0  0  0  0
    5.8809    0.6313   20.3921 C   0  0  0  0  0  0  0  0  0  0  0  0
    5.5892    0.7560   21.4156 H   0  0  0  0  0  0  0  0  0  0  0  0
 20 21  2  0  0  0  0
 19 20  1  0  0  0  0
 21 22  1  0  0  0  0
 18 19  2  0  0  0  0
 22 23  2  0  0  0  0
 18 23  1  0  0  0  0
 17 18  1  0  0  0  0
 23 24  1  0  0  0  0
 15 17  1  0  0  0  0
 15 16  1  0  0  0  0
 14 16  1  0  0  0  0
 14 15  2  0  0  0  0
  9 14  1  0  0  0  0
 11 12  1  0  0  0  0
  9 11  1  0  0  0  0
 11 13  1  0  0  0  0
 10 11  1  0  0  0  0
  7  8  1  0  0  0  0
  6  7  1  0  0  0  0
  8 13  2  3  0  0  0
  6  8  1  0  0  0  0
  5  6  2  3  0  0  0
  2  5  1  0  0  0  0
  2  3  1  0  0  0  0
  1  2  1  0  0  0  0
  2  4  1  0  0  0  0
M  END
> <Shapegauss>
-220.583359

$$$$
