stable:False satoms:12 tatoms:24 sratio:0.5
  -OEChem-08062408053D

 29 31  0     0  0  0  0  0  0999 V2000
    7.3031   -3.6119   26.8845 H   0  0  0  0  0  0  0  0  0  0  0  0
    8.3115   -3.1700   26.7782 C   0  0  0  0  0  0  0  0  0  0  0  0
    9.0185   -3.9886   26.9494 H   0  0  0  0  0  0  0  0  0  0  0  0
    8.3899   -2.4476   27.6043 H   0  0  0  0  0  0  0  0  0  0  0  0
    8.5925   -2.5198   25.6279 C   0  0  0  0  0  0  0  0  0  0  0  0
    9.0316   -1.7355   24.9137 C   0  0  0  0  0  0  0  0  0  0  0  0
    9.0364   -0.8026   23.9636 N   0  0  0  0  0  0  0  0  0  0  0  0
   10.2583   -0.6993   24.1527 C   0  0  0  0  0  0  0  0  0  0  0  0
   11.0285    1.1633   23.5426 O   0  0  0  0  0  0  0  0  0  0  0  0
   12.4381    1.0023   24.8457 H   0  0  0  0  0  0  0  0  0  0  0  0
   12.0942    0.3917   24.0052 C   0  0  0  0  0  0  0  0  0  0  0  0
   12.9856    0.1456   23.3854 H   0  0  0  0  0  0  0  0  0  0  0  0
   11.4278   -0.7210   24.2588 C   0  0  0  0  0  0  0  0  0  0  0  0
   10.2223    0.9004   22.5292 C   0  0  0  0  0  0  0  0  0  0  0  0
    9.3093    0.7091   21.6527 C   0  0  0  0  0  0  0  0  0  0  0  0
    9.9962    1.6697   21.4355 O   0  0  0  0  0  0  0  0  0  0  0  0
    8.2071   -0.0116   21.1424 N   0  0  0  0  0  0  0  0  0  0  0  0
    7.5175    0.4058   20.1122 C   0  0  0  0  0  0  0  0  0  0  0  0
    7.8572    0.2338   18.8087 N   0  0  0  0  0  0  0  0  0  0  0  0
    7.2211    0.6024   17.7491 N   0  0  0  0  0  0  0  0  0  0  0  0
    6.2369    0.9982   18.2407 C   0  0  0  0  0  0  0  0  0  0  0  0
    5.5471    1.2234   19.2074 N   0  0  0  0  0  0  0  0  0  0  0  0
    6.2010    0.9843   20.2793 C   0  0  0  0  0  0  0  0  0  0  0  0
    5.7959    1.1896   21.2499 H   0  0  0  0  0  0  0  0  0  0  0  0
    8.0571   -3.1394   24.9237 H   0  0  0  0  0  0  0  0  0  0  0  0
    8.3584   -0.3759   23.3652 H   0  0  0  0  0  0  0  0  0  0  0  0
   11.9430   -1.6229   24.5547 H   0  0  0  0  0  0  0  0  0  0  0  0
    7.9450   -0.8699   21.5835 H   0  0  0  0  0  0  0  0  0  0  0  0
    5.6397    1.3331   17.4054 H   0  0  0  0  0  0  0  0  0  0  0  0
 20 21  2  0  0  0  0
 19 20  1  0  0  0  0
 21 22  1  0  0  0  0
 18 19  2  0  0  0  0
 22 23  2  0  0  0  0
 18 23  1  0  0  0  0
 17 18  1  0  0  0  0
 23 24  1  0  0  0  0
 15 17  1  0  0  0  0
 15 16  1  0  0  0  0
 14 16  1  0  0  0  0
 14 15  2  0  0  0  0
  9 14  1  0  0  0  0
 11 12  1  0  0  0  0
  9 11  1  0  0  0  0
 11 13  1  0  0  0  0
 10 11  1  0  0  0  0
  7  8  1  0  0  0  0
  6  7  1  0  0  0  0
  8 13  2  3  0  0  0
  6  8  1  0  0  0  0
  5  6  2  3  0  0  0
  2  5  1  0  0  0  0
  2  3  1  0  0  0  0
  1  2  1  0  0  0  0
  2  4  1  0  0  0  0
  5 25  1  0  0  0  0
  7 26  1  0  0  0  0
 13 27  1  0  0  0  0
 17 28  1  0  0  0  0
 21 29  1  0  0  0  0
M  END
> <Chemgauss4>
-8.334282

$$$$
