stable:False satoms:12 tatoms:24 sratio:0.5
  -OEChem-08062408053D

 29 31  0     0  0  0  0  0  0999 V2000
  -14.0778   -0.3175  -23.9243 H   0  0  0  0  0  0  0  0  0  0  0  0
  -13.3337   -0.8934  -24.5057 C   0  0  0  0  0  0  0  0  0  0  0  0
  -13.4199   -0.5400  -25.5387 H   0  0  0  0  0  0  0  0  0  0  0  0
  -13.6810   -1.9360  -24.4515 H   0  0  0  0  0  0  0  0  0  0  0  0
  -12.0496   -0.8595  -24.0876 C   0  0  0  0  0  0  0  0  0  0  0  0
  -10.9819   -1.2138  -23.8584 C   0  0  0  0  0  0  0  0  0  0  0  0
   -9.8882   -1.4342  -23.1316 N   0  0  0  0  0  0  0  0  0  0  0  0
   -9.3957   -1.9639  -24.1397 C   0  0  0  0  0  0  0  0  0  0  0  0
   -7.8507   -3.3199  -23.6823 O   0  0  0  0  0  0  0  0  0  0  0  0
   -8.2405   -4.3008  -25.2938 H   0  0  0  0  0  0  0  0  0  0  0  0
   -7.9721   -3.2637  -25.0706 C   0  0  0  0  0  0  0  0  0  0  0  0
   -7.1335   -2.9835  -25.7471 H   0  0  0  0  0  0  0  0  0  0  0  0
   -8.9096   -2.3350  -25.1424 C   0  0  0  0  0  0  0  0  0  0  0  0
   -7.5468   -2.3324  -22.8585 C   0  0  0  0  0  0  0  0  0  0  0  0
   -7.3772   -1.4460  -21.9508 C   0  0  0  0  0  0  0  0  0  0  0  0
   -6.5140   -2.2803  -21.9810 O   0  0  0  0  0  0  0  0  0  0  0  0
   -7.7839   -0.2877  -21.2527 N   0  0  0  0  0  0  0  0  0  0  0  0
   -7.1594    0.1388  -20.1854 C   0  0  0  0  0  0  0  0  0  0  0  0
   -6.0273    0.8888  -20.1760 N   0  0  0  0  0  0  0  0  0  0  0  0
   -5.3711    1.3546  -19.1682 N   0  0  0  0  0  0  0  0  0  0  0  0
   -6.0996    1.0524  -18.3051 C   0  0  0  0  0  0  0  0  0  0  0  0
   -7.1196    0.5428  -17.9040 N   0  0  0  0  0  0  0  0  0  0  0  0
   -7.7292   -0.0371  -18.8662 C   0  0  0  0  0  0  0  0  0  0  0  0
   -8.6189   -0.6135  -18.7101 H   0  0  0  0  0  0  0  0  0  0  0  0
  -11.9865    0.1646  -23.7504 H   0  0  0  0  0  0  0  0  0  0  0  0
   -9.5949   -1.2536  -22.1928 H   0  0  0  0  0  0  0  0  0  0  0  0
   -9.2194   -1.9296  -26.0943 H   0  0  0  0  0  0  0  0  0  0  0  0
   -8.5762    0.2238  -21.5856 H   0  0  0  0  0  0  0  0  0  0  0  0
   -5.6133    1.4116  -17.4102 H   0  0  0  0  0  0  0  0  0  0  0  0
 20 21  2  0  0  0  0
 19 20  1  0  0  0  0
 21 22  1  0  0  0  0
 18 19  2  0  0  0  0
 22 23  2  0  0  0  0
 18 23  1  0  0  0  0
 17 18  1  0  0  0  0
 23 24  1  0  0  0  0
 15 17  1  0  0  0  0
 15 16  1  0  0  0  0
 14 16  1  0  0  0  0
 14 15  2  0  0  0  0
  9 14  1  0  0  0  0
 11 12  1  0  0  0  0
  9 11  1  0  0  0  0
 11 13  1  0  0  0  0
 10 11  1  0  0  0  0
  7  8  1  0  0  0  0
  6  7  1  0  0  0  0
  8 13  2  3  0  0  0
  6  8  1  0  0  0  0
  5  6  2  3  0  0  0
  2  5  1  0  0  0  0
  2  3  1  0  0  0  0
  1  2  1  0  0  0  0
  2  4  1  0  0  0  0
  5 25  1  0  0  0  0
  7 26  1  0  0  0  0
 13 27  1  0  0  0  0
 17 28  1  0  0  0  0
 21 29  1  0  0  0  0
M  END
> <Chemgauss4>
-8.380620

$$$$
