
 OpenBabel07202414173D

 53 57  0  0  1  0  0  0  0  0999 V2000
    1.0762    0.0351   -0.0343 Cl  0  0  0  0  0  0  0  0  0  0  0  0
    2.7947   -0.0192    0.0054 C   0  0  0  0  0  0  0  0  0  0  0  0
    3.5295    1.1424   -0.1738 C   0  0  0  0  0  0  0  0  0  0  0  0
    4.9273    1.0933   -0.1518 C   0  0  0  0  0  0  0  0  0  0  0  0
    5.6288   -0.1052    0.0713 C   0  0  0  0  0  0  0  0  0  0  0  0
    4.8545   -1.2697    0.2810 C   0  0  0  0  0  0  0  0  0  0  0  0
    3.4465   -1.2234    0.2369 C   0  0  0  0  0  0  0  0  0  0  0  0
    5.5208   -2.5914    0.6292 C   0  0  3  0  0  0  0  0  0  0  0  0
    5.4129   -2.9588    2.1215 C   0  0  0  0  0  0  0  0  0  0  0  0
    5.4221   -4.1390    2.4649 O   0  0  0  0  0  0  0  0  0  0  0  0
    5.3894   -1.8799    2.9850 N   0  0  0  0  0  0  0  0  0  0  0  0
    5.1438   -1.8781    4.3811 C   0  0  0  0  0  0  0  0  0  0  0  0
    4.8671   -3.0388    5.1033 C   0  0  0  0  0  0  0  0  0  0  0  0
    4.4680   -3.0576    6.3968 N   0  0  0  0  0  0  0  0  0  0  0  0
    4.3802   -1.8640    7.0182 C   0  0  0  0  0  0  0  0  0  0  0  0
    4.7331   -0.6445    6.4417 C   0  0  0  0  0  0  0  0  0  0  0  0
    4.7194    0.5439    7.1959 C   0  0  0  0  0  0  0  0  0  0  0  0
    5.1098    1.7537    6.6270 C   0  0  0  0  0  0  0  0  0  0  0  0
    5.4849    1.7942    5.2925 C   0  0  0  0  0  0  0  0  0  0  0  0
    5.4841    0.6223    4.5293 C   0  0  0  0  0  0  0  0  0  0  0  0
    5.1241   -0.6364    5.0840 C   0  0  0  0  0  0  0  0  0  0  0  0
    6.9815   -2.6115    0.1888 C   0  0  0  0  0  0  0  0  0  0  0  0
    7.6863   -1.3418    0.6314 C   0  0  0  0  0  0  0  0  0  0  0  0
    7.0160   -0.1638    0.0821 N   0  0  0  0  0  0  0  0  0  0  0  0
    7.8744    0.9530   -0.3499 C   0  0  0  0  0  0  0  0  0  0  0  0
    7.7458    1.2783   -1.8275 C   0  0  0  0  0  0  0  0  0  0  0  0
    7.8688    2.6092   -2.2597 C   0  0  0  0  0  0  0  0  0  0  0  0
    7.7135    2.9392   -3.6084 C   0  0  0  0  0  0  0  0  0  0  0  0
    7.4519    1.9424   -4.5454 C   0  0  0  0  0  0  0  0  0  0  0  0
    7.3736    0.6127   -4.1396 C   0  0  0  0  0  0  0  0  0  0  0  0
    7.5322    0.2819   -2.7921 C   0  0  0  0  0  0  0  0  0  0  0  0
    3.0294    2.0923   -0.3509 H   0  0  0  0  0  0  0  0  0  0  0  0
    5.4547    2.0294   -0.3071 H   0  0  0  0  0  0  0  0  0  0  0  0
    2.8628   -2.1273    0.3948 H   0  0  0  0  0  0  0  0  0  0  0  0
    4.9946   -3.3852    0.0795 H   0  0  0  0  0  0  0  0  0  0  0  0
    5.4276   -0.9686    2.5512 H   0  0  0  0  0  0  0  0  0  0  0  0
    4.9388   -4.0289    4.6670 H   0  0  0  0  0  0  0  0  0  0  0  0
    4.0139   -1.9199    8.0399 H   0  0  0  0  0  0  0  0  0  0  0  0
    4.4284    0.5271    8.2440 H   0  0  0  0  0  0  0  0  0  0  0  0
    5.1306    2.6591    7.2287 H   0  0  0  0  0  0  0  0  0  0  0  0
    5.7915    2.7347    4.8405 H   0  0  0  0  0  0  0  0  0  0  0  0
    5.8076    0.7154    3.4969 H   0  0  0  0  0  0  0  0  0  0  0  0
    7.0292   -2.6864   -0.9057 H   0  0  0  0  0  0  0  0  0  0  0  0
    7.5025   -3.4876    0.5922 H   0  0  0  0  0  0  0  0  0  0  0  0
    8.7279   -1.3916    0.2941 H   0  0  0  0  0  0  0  0  0  0  0  0
    7.7203   -1.2626    1.7240 H   0  0  0  0  0  0  0  0  0  0  0  0
    8.9311    0.7266   -0.1590 H   0  0  0  0  0  0  0  0  0  0  0  0
    7.6474    1.8363    0.2603 H   0  0  0  0  0  0  0  0  0  0  0  0
    8.0709    3.4039   -1.5451 H   0  0  0  0  0  0  0  0  0  0  0  0
    7.7880    3.9756   -3.9274 H   0  0  0  0  0  0  0  0  0  0  0  0
    7.3102    2.2007   -5.5916 H   0  0  0  0  0  0  0  0  0  0  0  0
    7.1766   -0.1683   -4.8693 H   0  0  0  0  0  0  0  0  0  0  0  0
    7.4569   -0.7609   -2.4943 H   0  0  0  0  0  0  0  0  0  0  0  0
  1  2  1  0  0  0  0
  2  3  1  0  0  0  0
  2  7  2  0  0  0  0
  3  4  2  0  0  0  0
  3 32  1  0  0  0  0
  4  5  1  0  0  0  0
  4 33  1  0  0  0  0
  5  6  2  0  0  0  0
  5 24  1  0  0  0  0
  6  7  1  0  0  0  0
  6  8  1  0  0  0  0
  7 34  1  0  0  0  0
  8  9  1  0  0  0  0
  8 22  1  0  0  0  0
  8 35  1  0  0  0  0
  9 10  2  0  0  0  0
  9 11  1  0  0  0  0
 11 12  1  0  0  0  0
 11 36  1  0  0  0  0
 12 13  1  0  0  0  0
 12 21  2  0  0  0  0
 13 14  2  0  0  0  0
 13 37  1  0  0  0  0
 14 15  1  0  0  0  0
 15 16  2  0  0  0  0
 15 38  1  0  0  0  0
 16 17  1  0  0  0  0
 16 21  1  0  0  0  0
 17 18  2  0  0  0  0
 17 39  1  0  0  0  0
 18 19  1  0  0  0  0
 18 40  1  0  0  0  0
 19 20  2  0  0  0  0
 19 41  1  0  0  0  0
 20 21  1  0  0  0  0
 20 42  1  0  0  0  0
 22 23  1  0  0  0  0
 22 43  1  0  0  0  0
 22 44  1  0  0  0  0
 23 24  1  0  0  0  0
 23 45  1  0  0  0  0
 23 46  1  0  0  0  0
 24 25  1  0  0  0  0
 25 26  1  0  0  0  0
 25 47  1  0  0  0  0
 25 48  1  0  0  0  0
 26 27  1  0  0  0  0
 26 31  2  0  0  0  0
 27 28  2  0  0  0  0
 27 49  1  0  0  0  0
 28 29  1  0  0  0  0
 28 50  1  0  0  0  0
 29 30  2  0  0  0  0
 29 51  1  0  0  0  0
 30 31  1  0  0  0  0
 30 52  1  0  0  0  0
 31 53  1  0  0  0  0
M  END
$$$$
