REMARK  3 active torsions:
REMARK  status: ('A' for Active; 'I' for Inactive)
REMARK    1  A    between atoms: C_5  and  C_7 
REMARK    2  A    between atoms: N_6  and  C_8 
REMARK    3  A    between atoms: C_8  and  N_11 
ROOT
HETATM    1  C   UNL     1       8.779  -1.918  22.670  1.00  0.00     0.098 C 
HETATM    2  H   UNL     1      10.547  -1.066  22.850  1.00  0.00     0.161 HD
HETATM    3  N   UNL     1       9.929  -1.534  22.191  1.00  0.00    -0.370 N 
ENDROOT
BRANCH   1   4
HETATM    4  C   UNL     1       8.086  -0.964  23.456  1.00  0.00     0.001 C 
HETATM    5  C   UNL     1       8.254  -0.848  24.851  1.00  0.00     0.045 C 
HETATM    6  C   UNL     1       7.326  -0.171  25.567  1.00  0.00     0.024 C 
HETATM    7 CL   UNL     1       9.636  -1.666  25.728  1.00  0.00    -0.083 Cl
HETATM    8  C   UNL     1       6.278   0.470  24.898  1.00  0.00     0.002 C 
HETATM    9  C   UNL     1       6.268   0.582  23.517  1.00  0.00     0.001 C 
HETATM   10  C   UNL     1       7.230  -0.072  22.797  1.00  0.00     0.014 C 
ENDBRANCH   1   4
BRANCH   3  11
HETATM   11  C   UNL     1      10.320  -1.616  20.801  1.00  0.00     0.312 C 
HETATM   12  C   UNL     1       9.358  -2.443  19.944  1.00  0.00     0.065 C 
BRANCH  11  13
HETATM   13  N   UNL     1      11.660  -2.119  20.745  1.00  0.00     0.100 N 
HETATM   14  H   UNL     1      12.331  -1.470  21.118  1.00  0.00     0.315 HD
HETATM   15  H   UNL     1      11.777  -3.010  21.211  1.00  0.00     0.315 HD
ENDBRANCH  11  13
ENDBRANCH   3  11
TORSDOF 3
