MODEL 1
REMARK VINA RESULT:    -4.765      0.000      0.000
REMARK INTER + INTRA:          -5.776
REMARK INTER:                  -5.461
REMARK INTRA:                  -0.314
REMARK UNBOUND:                -0.314
REMARK  3 active torsions:
REMARK  status: ('A' for Active; 'I' for Inactive)
REMARK    1  A    between atoms: C_5  and  C_7 
REMARK    2  A    between atoms: N_6  and  C_8 
REMARK    3  A    between atoms: C_8  and  N_11 
ROOT
HETATM    1  C   UNL     1       1.550 -18.268   7.849  1.00  0.00     0.098 C 
HETATM    2  H   UNL     1       2.333 -17.564   9.515  1.00  0.00     0.161 HD
HETATM    3  N   UNL     1       1.580 -17.428   8.845  1.00  0.00    -0.370 N 
ENDROOT
BRANCH   1   4
HETATM    4  C   UNL     1       1.714 -19.635   8.187  1.00  0.00     0.001 C 
HETATM    5  C   UNL     1       0.747 -20.373   8.898  1.00  0.00     0.045 C 
HETATM    6  C   UNL     1       1.111 -21.542   9.475  1.00  0.00     0.024 C 
HETATM    7 CL   UNL     1      -0.957 -19.750   9.140  1.00  0.00    -0.083 Cl
HETATM    8  C   UNL     1       2.407 -22.030   9.278  1.00  0.00     0.002 C 
HETATM    9  C   UNL     1       3.264 -21.442   8.361  1.00  0.00     0.001 C 
HETATM   10  C   UNL     1       2.878 -20.281   7.750  1.00  0.00     0.014 C 
ENDBRANCH   1   4
BRANCH   3  11
HETATM   11  C   UNL     1       0.573 -16.426   9.118  1.00  0.00     0.312 C 
HETATM   12  C   UNL     1      -0.496 -16.322   8.026  1.00  0.00     0.065 C 
BRANCH  11  13
HETATM   13  N   UNL     1       1.237 -15.177   9.342  1.00  0.00     0.100 N 
HETATM   14  H   UNL     1       2.233 -15.244   9.223  1.00  0.00     0.315 HD
HETATM   15  H   UNL     1       0.891 -14.425   8.760  1.00  0.00     0.315 HD
ENDBRANCH  11  13
ENDBRANCH   3  11
TORSDOF 3
ENDMDL
MODEL 2
REMARK VINA RESULT:    -4.687     22.779     24.459
REMARK INTER + INTRA:          -5.686
REMARK INTER:                  -5.396
REMARK INTRA:                  -0.290
REMARK UNBOUND:                -0.314
REMARK  3 active torsions:
REMARK  status: ('A' for Active; 'I' for Inactive)
REMARK    1  A    between atoms: C_5  and  C_7 
REMARK    2  A    between atoms: N_6  and  C_8 
REMARK    3  A    between atoms: C_8  and  N_11 
ROOT
HETATM    1  C   UNL     1       7.099   0.024  20.534  1.00  0.00     0.098 C 
HETATM    2  H   UNL     1       8.109  -0.079  18.845  1.00  0.00     0.161 HD
HETATM    3  N   UNL     1       7.198   0.144  19.239  1.00  0.00    -0.370 N 
ENDROOT
BRANCH   1   4
HETATM    4  C   UNL     1       8.154   0.591  21.291  1.00  0.00     0.001 C 
HETATM    5  C   UNL     1       8.063   1.852  21.915  1.00  0.00     0.045 C 
HETATM    6  C   UNL     1       9.201   2.467  22.314  1.00  0.00     0.024 C 
HETATM    7 CL   UNL     1       6.463   2.718  22.112  1.00  0.00    -0.083 Cl
HETATM    8  C   UNL     1      10.423   1.801  22.180  1.00  0.00     0.002 C 
HETATM    9  C   UNL     1      10.478   0.464  21.821  1.00  0.00     0.001 C 
HETATM   10  C   UNL     1       9.321  -0.167  21.454  1.00  0.00     0.014 C 
ENDBRANCH   1   4
BRANCH   3  11
HETATM   11  C   UNL     1       6.169   0.674  18.372  1.00  0.00     0.312 C 
HETATM   12  C   UNL     1       5.076   1.443  19.120  1.00  0.00     0.065 C 
BRANCH  11  13
HETATM   13  N   UNL     1       5.635  -0.409  17.602  1.00  0.00     0.100 N 
HETATM   14  H   UNL     1       4.976  -0.100  16.908  1.00  0.00     0.315 HD
HETATM   15  H   UNL     1       6.344  -0.970  17.148  1.00  0.00     0.315 HD
ENDBRANCH  11  13
ENDBRANCH   3  11
TORSDOF 3
ENDMDL
MODEL 3
REMARK VINA RESULT:    -4.619     23.148     25.199
REMARK INTER + INTRA:          -5.609
REMARK INTER:                  -5.395
REMARK INTRA:                  -0.213
REMARK UNBOUND:                -0.314
REMARK  3 active torsions:
REMARK  status: ('A' for Active; 'I' for Inactive)
REMARK    1  A    between atoms: C_5  and  C_7 
REMARK    2  A    between atoms: N_6  and  C_8 
REMARK    3  A    between atoms: C_8  and  N_11 
ROOT
HETATM    1  C   UNL     1       9.051  -0.371  21.585  1.00  0.00     0.098 C 
HETATM    2  H   UNL     1       9.604   0.129  19.761  1.00  0.00     0.161 HD
HETATM    3  N   UNL     1       8.793  -0.051  20.348  1.00  0.00    -0.370 N 
ENDROOT
BRANCH   1   4
HETATM    4  C   UNL     1      10.011   0.435  22.245  1.00  0.00     0.001 C 
HETATM    5  C   UNL     1      11.079  -0.098  22.995  1.00  0.00     0.045 C 
HETATM    6  C   UNL     1      11.734   0.707  23.864  1.00  0.00     0.024 C 
HETATM    7 CL   UNL     1      11.541  -1.866  22.895  1.00  0.00    -0.083 Cl
HETATM    8  C   UNL     1      11.395   2.063  23.931  1.00  0.00     0.002 C 
HETATM    9  C   UNL     1      10.538   2.636  23.005  1.00  0.00     0.001 C 
HETATM   10  C   UNL     1       9.907   1.825  22.102  1.00  0.00     0.014 C 
ENDBRANCH   1   4
BRANCH   3  11
HETATM   11  C   UNL     1       7.471   0.177  19.807  1.00  0.00     0.312 C 
HETATM   12  C   UNL     1       6.394  -0.714  20.430  1.00  0.00     0.065 C 
BRANCH  11  13
HETATM   13  N   UNL     1       7.541   0.024  18.384  1.00  0.00     0.100 N 
HETATM   14  H   UNL     1       8.470  -0.190  18.065  1.00  0.00     0.315 HD
HETATM   15  H   UNL     1       6.904  -0.674  18.021  1.00  0.00     0.315 HD
ENDBRANCH  11  13
ENDBRANCH   3  11
TORSDOF 3
ENDMDL
MODEL 4
REMARK VINA RESULT:    -4.524     25.422     27.199
REMARK INTER + INTRA:          -5.499
REMARK INTER:                  -5.314
REMARK INTRA:                  -0.185
REMARK UNBOUND:                -0.314
REMARK  3 active torsions:
REMARK  status: ('A' for Active; 'I' for Inactive)
REMARK    1  A    between atoms: C_5  and  C_7 
REMARK    2  A    between atoms: N_6  and  C_8 
REMARK    3  A    between atoms: C_8  and  N_11 
ROOT
HETATM    1  C   UNL     1      10.487   2.224  23.827  1.00  0.00     0.098 C 
HETATM    2  H   UNL     1      10.808   3.147  22.115  1.00  0.00     0.161 HD
HETATM    3  N   UNL     1      10.802   3.276  23.124  1.00  0.00    -0.370 N 
ENDROOT
BRANCH   1   4
HETATM    4  C   UNL     1      11.126   1.016  23.454  1.00  0.00     0.001 C 
HETATM    5  C   UNL     1      10.609   0.142  22.476  1.00  0.00     0.045 C 
HETATM    6  C   UNL     1      11.074  -1.128  22.423  1.00  0.00     0.024 C 
HETATM    7 CL   UNL     1       9.265   0.649  21.342  1.00  0.00    -0.083 Cl
HETATM    8  C   UNL     1      12.114  -1.513  23.276  1.00  0.00     0.002 C 
HETATM    9  C   UNL     1      12.799  -0.583  24.041  1.00  0.00     0.001 C 
HETATM   10  C   UNL     1      12.350   0.709  24.062  1.00  0.00     0.014 C 
ENDBRANCH   1   4
BRANCH   3  11
HETATM   11  C   UNL     1      11.251   4.538  23.671  1.00  0.00     0.312 C 
HETATM   12  C   UNL     1      10.117   5.391  24.246  1.00  0.00     0.065 C 
BRANCH  11  13
HETATM   13  N   UNL     1      11.983   5.229  22.652  1.00  0.00     0.100 N 
HETATM   14  H   UNL     1      12.648   4.636  22.187  1.00  0.00     0.315 HD
HETATM   15  H   UNL     1      11.392   5.664  21.955  1.00  0.00     0.315 HD
ENDBRANCH  11  13
ENDBRANCH   3  11
TORSDOF 3
ENDMDL
MODEL 5
REMARK VINA RESULT:    -4.494     23.304     24.854
REMARK INTER + INTRA:          -5.465
REMARK INTER:                  -5.134
REMARK INTRA:                  -0.332
REMARK UNBOUND:                -0.314
REMARK  3 active torsions:
REMARK  status: ('A' for Active; 'I' for Inactive)
REMARK    1  A    between atoms: C_5  and  C_7 
REMARK    2  A    between atoms: N_6  and  C_8 
REMARK    3  A    between atoms: C_8  and  N_11 
ROOT
HETATM    1  C   UNL     1       9.072  -1.162  21.778  1.00  0.00     0.098 C 
HETATM    2  H   UNL     1      10.085  -0.286  20.333  1.00  0.00     0.161 HD
HETATM    3  N   UNL     1       9.146  -0.464  20.680  1.00  0.00    -0.370 N 
ENDROOT
BRANCH   1   4
HETATM    4  C   UNL     1       9.954  -0.776  22.818  1.00  0.00     0.001 C 
HETATM    5  C   UNL     1       9.681   0.287  23.703  1.00  0.00     0.045 C 
HETATM    6  C   UNL     1      10.698   0.812  24.427  1.00  0.00     0.024 C 
HETATM    7 CL   UNL     1       8.017   1.037  23.827  1.00  0.00    -0.083 Cl
HETATM    8  C   UNL     1      11.967   0.230  24.347  1.00  0.00     0.002 C 
HETATM    9  C   UNL     1      12.167  -0.973  23.691  1.00  0.00     0.001 C 
HETATM   10  C   UNL     1      11.127  -1.521  22.991  1.00  0.00     0.014 C 
ENDBRANCH   1   4
BRANCH   3  11
HETATM   11  C   UNL     1       8.023   0.159  20.014  1.00  0.00     0.312 C 
HETATM   12  C   UNL     1       6.672  -0.184  20.646  1.00  0.00     0.065 C 
BRANCH  11  13
HETATM   13  N   UNL     1       8.076  -0.197  18.628  1.00  0.00     0.100 N 
HETATM   14  H   UNL     1       7.693  -1.109  18.449  1.00  0.00     0.315 HD
HETATM   15  H   UNL     1       7.617   0.471  18.021  1.00  0.00     0.315 HD
ENDBRANCH  11  13
ENDBRANCH   3  11
TORSDOF 3
ENDMDL
MODEL 6
REMARK VINA RESULT:    -4.448     22.327     23.220
REMARK INTER + INTRA:          -5.413
REMARK INTER:                  -5.212
REMARK INTRA:                  -0.201
REMARK UNBOUND:                -0.314
REMARK  3 active torsions:
REMARK  status: ('A' for Active; 'I' for Inactive)
REMARK    1  A    between atoms: C_5  and  C_7 
REMARK    2  A    between atoms: N_6  and  C_8 
REMARK    3  A    between atoms: C_8  and  N_11 
ROOT
HETATM    1  C   UNL     1       6.828  -0.040  21.034  1.00  0.00     0.098 C 
HETATM    2  H   UNL     1       6.528  -1.444  19.684  1.00  0.00     0.161 HD
HETATM    3  N   UNL     1       6.434  -0.447  19.860  1.00  0.00    -0.370 N 
ENDROOT
BRANCH   1   4
HETATM    4  C   UNL     1       8.080  -0.537  21.473  1.00  0.00     0.001 C 
HETATM    5  C   UNL     1       8.225  -1.757  22.165  1.00  0.00     0.045 C 
HETATM    6  C   UNL     1       9.372  -1.992  22.844  1.00  0.00     0.024 C 
HETATM    7 CL   UNL     1       6.871  -2.985  22.248  1.00  0.00    -0.083 Cl
HETATM    8  C   UNL     1      10.415  -1.063  22.768  1.00  0.00     0.002 C 
HETATM    9  C   UNL     1      10.373  -0.004  21.875  1.00  0.00     0.001 C 
HETATM   10  C   UNL     1       9.225   0.208  21.161  1.00  0.00     0.014 C 
ENDBRANCH   1   4
BRANCH   3  11
HETATM   11  C   UNL     1       6.003   0.416  18.782  1.00  0.00     0.312 C 
HETATM   12  C   UNL     1       4.892   1.389  19.186  1.00  0.00     0.065 C 
BRANCH  11  13
HETATM   13  N   UNL     1       5.621  -0.410  17.676  1.00  0.00     0.100 N 
HETATM   14  H   UNL     1       4.627  -0.421  17.529  1.00  0.00     0.315 HD
HETATM   15  H   UNL     1       6.075  -0.157  16.807  1.00  0.00     0.315 HD
ENDBRANCH  11  13
ENDBRANCH   3  11
TORSDOF 3
ENDMDL
MODEL 7
REMARK VINA RESULT:    -4.431     20.841     22.061
REMARK INTER + INTRA:          -5.393
REMARK INTER:                  -5.181
REMARK INTRA:                  -0.213
REMARK UNBOUND:                -0.314
REMARK  3 active torsions:
REMARK  status: ('A' for Active; 'I' for Inactive)
REMARK    1  A    between atoms: C_5  and  C_7 
REMARK    2  A    between atoms: N_6  and  C_8 
REMARK    3  A    between atoms: C_8  and  N_11 
ROOT
HETATM    1  C   UNL     1       6.690  -0.813  21.246  1.00  0.00     0.098 C 
HETATM    2  H   UNL     1       4.869  -1.037  20.524  1.00  0.00     0.161 HD
HETATM    3  N   UNL     1       5.798  -0.684  20.304  1.00  0.00    -0.370 N 
ENDROOT
BRANCH   1   4
HETATM    4  C   UNL     1       6.743  -2.081  21.878  1.00  0.00     0.001 C 
HETATM    5  C   UNL     1       7.712  -2.418  22.845  1.00  0.00     0.045 C 
HETATM    6  C   UNL     1       7.915  -3.724  23.139  1.00  0.00     0.024 C 
HETATM    7 CL   UNL     1       8.766  -1.150  23.639  1.00  0.00    -0.083 Cl
HETATM    8  C   UNL     1       7.099  -4.694  22.547  1.00  0.00     0.002 C 
HETATM    9  C   UNL     1       5.979  -4.341  21.813  1.00  0.00     0.001 C 
HETATM   10  C   UNL     1       5.755  -3.017  21.549  1.00  0.00     0.014 C 
ENDBRANCH   1   4
BRANCH   3  11
HETATM   11  C   UNL     1       6.065  -0.201  18.967  1.00  0.00     0.312 C 
HETATM   12  C   UNL     1       5.477   1.185  18.690  1.00  0.00     0.065 C 
BRANCH  11  13
HETATM   13  N   UNL     1       5.593  -1.183  18.037  1.00  0.00     0.100 N 
HETATM   14  H   UNL     1       4.590  -1.229  18.002  1.00  0.00     0.315 HD
HETATM   15  H   UNL     1       5.946  -1.051  17.097  1.00  0.00     0.315 HD
ENDBRANCH  11  13
ENDBRANCH   3  11
TORSDOF 3
ENDMDL
MODEL 8
REMARK VINA RESULT:    -4.416     36.325     38.722
REMARK INTER + INTRA:          -5.376
REMARK INTER:                  -5.260
REMARK INTRA:                  -0.116
REMARK UNBOUND:                -0.314
REMARK  3 active torsions:
REMARK  status: ('A' for Active; 'I' for Inactive)
REMARK    1  A    between atoms: C_5  and  C_7 
REMARK    2  A    between atoms: N_6  and  C_8 
REMARK    3  A    between atoms: C_8  and  N_11 
ROOT
HETATM    1  C   UNL     1       8.770  17.348   2.534  1.00  0.00     0.098 C 
HETATM    2  H   UNL     1      10.690  16.947   2.720  1.00  0.00     0.161 HD
HETATM    3  N   UNL     1       9.771  16.520   2.636  1.00  0.00    -0.370 N 
ENDROOT
BRANCH   1   4
HETATM    4  C   UNL     1       8.940  18.416   1.618  1.00  0.00     0.001 C 
HETATM    5  C   UNL     1       9.798  19.508   1.860  1.00  0.00     0.045 C 
HETATM    6  C   UNL     1       9.649  20.632   1.121  1.00  0.00     0.024 C 
HETATM    7 CL   UNL     1      11.038  19.482   3.205  1.00  0.00    -0.083 Cl
HETATM    8  C   UNL     1       8.714  20.650   0.081  1.00  0.00     0.002 C 
HETATM    9  C   UNL     1       8.070  19.492  -0.327  1.00  0.00     0.001 C 
HETATM   10  C   UNL     1       8.252  18.348   0.400  1.00  0.00     0.014 C 
ENDBRANCH   1   4
BRANCH   3  11
HETATM   11  C   UNL     1       9.675  15.081   2.517  1.00  0.00     0.312 C 
HETATM   12  C   UNL     1       8.403  14.500   3.139  1.00  0.00     0.065 C 
BRANCH  11  13
HETATM   13  N   UNL     1      10.861  14.509   3.080  1.00  0.00     0.100 N 
HETATM   14  H   UNL     1      11.521  14.221   2.378  1.00  0.00     0.315 HD
HETATM   15  H   UNL     1      11.332  15.119   3.737  1.00  0.00     0.315 HD
ENDBRANCH  11  13
ENDBRANCH   3  11
TORSDOF 3
ENDMDL
MODEL 9
REMARK VINA RESULT:    -4.234     39.488     40.632
REMARK INTER + INTRA:          -5.167
REMARK INTER:                  -4.973
REMARK INTRA:                  -0.194
REMARK UNBOUND:                -0.314
REMARK  3 active torsions:
REMARK  status: ('A' for Active; 'I' for Inactive)
REMARK    1  A    between atoms: C_5  and  C_7 
REMARK    2  A    between atoms: N_6  and  C_8 
REMARK    3  A    between atoms: C_8  and  N_11 
ROOT
HETATM    1  C   UNL     1      10.750  20.275   2.897  1.00  0.00     0.098 C 
HETATM    2  H   UNL     1      12.468  19.433   2.423  1.00  0.00     0.161 HD
HETATM    3  N   UNL     1      11.808  19.570   3.186  1.00  0.00    -0.370 N 
ENDROOT
BRANCH   1   4
HETATM    4  C   UNL     1      10.095  19.942   1.686  1.00  0.00     0.001 C 
HETATM    5  C   UNL     1       9.916  20.859   0.630  1.00  0.00     0.045 C 
HETATM    6  C   UNL     1       8.998  20.583  -0.327  1.00  0.00     0.024 C 
HETATM    7 CL   UNL     1      10.818  22.449   0.570  1.00  0.00    -0.083 Cl
HETATM    8  C   UNL     1       8.320  19.360  -0.293  1.00  0.00     0.002 C 
HETATM    9  C   UNL     1       8.692  18.354   0.584  1.00  0.00     0.001 C 
HETATM   10  C   UNL     1       9.648  18.624   1.526  1.00  0.00     0.014 C 
ENDBRANCH   1   4
BRANCH   3  11
HETATM   11  C   UNL     1      12.035  18.888   4.440  1.00  0.00     0.312 C 
HETATM   12  C   UNL     1      12.258  19.838   5.620  1.00  0.00     0.065 C 
BRANCH  11  13
HETATM   13  N   UNL     1      13.132  17.984   4.262  1.00  0.00     0.100 N 
HETATM   14  H   UNL     1      13.332  17.807   3.293  1.00  0.00     0.315 HD
HETATM   15  H   UNL     1      13.983  18.286   4.719  1.00  0.00     0.315 HD
ENDBRANCH  11  13
ENDBRANCH   3  11
TORSDOF 3
ENDMDL
