stable:False satoms:21 tatoms:24 sratio:0.875
  -OEChem-07092417273D

 24 24  0     1  0  0  0  0  0999 V2000
    7.3261   -0.1714   25.5669 C   0  0  0  0  0  0  0  0  0  0  0  0
    8.2538   -0.8483   24.8508 C   0  0  0  0  0  0  0  0  0  0  0  0
    6.2684    0.5823   23.5168 C   0  0  0  0  0  0  0  0  0  0  0  0
    9.6364   -1.6662   25.7280 Cl  0  0  0  0  0  0  0  0  0  0  0  0
    8.7786   -1.9180   22.6704 C   0  3  0  0  0  0  0  0  0  0  0  0
   11.6599   -2.1191   20.7452 N   0  0  0  0  0  0  0  0  0  0  0  0
    5.4828    0.8880   25.4759 H   0  0  0  0  0  0  0  0  0  0  0  0
    8.0860   -0.9637   23.4561 C   0  0  0  0  0  0  0  0  0  0  0  0
   10.3205   -1.6164   20.8010 C   0  0  1  0  0  0  0  0  0  0  0  0
    9.7550   -2.5492   18.9473 H   0  0  0  0  0  0  0  0  0  0  0  0
    5.5149    1.1756   23.0093 H   0  0  0  0  0  0  0  0  0  0  0  0
    8.3700   -2.8884   22.4943 H   0  0  0  0  0  0  0  0  0  0  0  0
    9.3585   -2.4427   19.9439 C   0  0  0  0  0  0  0  0  0  0  0  0
   10.5470   -1.0661   22.8502 H   0  0  0  0  0  0  0  0  0  0  0  0
    9.9291   -1.5335   22.1913 N   0  0  0  0  0  0  0  0  0  0  0  0
    9.2449   -3.4345   20.3824 H   0  0  0  0  0  0  0  0  0  0  0  0
    8.3862   -1.9633   19.8856 H   0  0  0  0  0  0  0  0  0  0  0  0
    7.2304   -0.0725   22.7971 C   0  0  0  0  0  0  0  0  0  0  0  0
   11.7766   -3.0096   21.2114 H   0  0  0  0  0  0  0  0  0  0  0  0
    6.2780    0.4702   24.8982 C   0  0  0  0  0  0  0  0  0  0  0  0
   12.3309   -1.4699   21.1181 H   0  0  0  0  0  0  0  0  0  0  0  0
    7.3824   -0.1397   26.6419 H   0  0  0  0  0  0  0  0  0  0  0  0
   10.3281   -0.5995   20.3840 H   0  0  0  0  0  0  0  0  0  0  0  0
    7.3393    0.0657   21.7305 H   0  0  0  0  0  0  0  0  0  0  0  0
 10 13  1  0  0  0  0
 13 17  1  0  0  0  0
 13 16  1  0  0  0  0
  9 13  1  0  0  0  0
  9 23  1  0  0  0  0
  6  9  1  0  0  0  0
  6 21  1  0  0  0  0
  6 19  1  0  0  0  0
  9 15  1  0  0  0  0
 18 24  1  0  0  0  0
  5 15  1  0  0  0  0
 14 15  1  0  0  0  0
  5 12  1  0  0  0  0
  5  8  1  0  0  0  0
  8 18  2  0  0  0  0
  3 18  1  0  0  0  0
  3 11  1  0  0  0  0
  2  8  1  0  0  0  0
  3 20  2  0  0  0  0
  1  2  2  0  0  0  0
  2  4  1  0  0  0  0
  7 20  1  0  0  0  0
  1 20  1  0  0  0  0
  1 22  1  0  0  0  0
M  CHG  1   5   1
M  END
> <Shapegauss>
-67.595573

$$$$
