stable:False satoms:20 tatoms:24 sratio:0.8333333333333334
  -OEChem-07092417303D

 24 24  0     0  0  0  0  0  0999 V2000
   10.3020   -3.0091   20.3628 H   0  0  0  0  0  0  0  0  0  0  0  0
    7.9652   -3.1304   22.2931 H   0  0  0  0  0  0  0  0  0  0  0  0
    5.4340    1.3235   23.9285 Cl  0  0  0  0  0  0  0  0  0  0  0  0
    9.9989   -1.2301   21.8283 H   0  0  0  0  0  0  0  0  0  0  0  0
    6.8535   -0.9243   22.8206 H   0  0  0  0  0  0  0  0  0  0  0  0
    7.1106    0.8461   24.0107 C   0  0  0  0  0  0  0  0  0  0  0  0
    7.5564   -0.3234   23.3782 C   0  0  0  0  0  0  0  0  0  0  0  0
   10.7574   -0.2782   24.4470 H   0  0  0  0  0  0  0  0  0  0  0  0
    8.9008   -0.7022   23.4644 C   0  0  0  0  0  0  0  0  0  0  0  0
    7.6739    2.5667   25.1821 H   0  0  0  0  0  0  0  0  0  0  0  0
    7.3340   -2.8947   19.7387 H   0  0  0  0  0  0  0  0  0  0  0  0
    9.3197    1.2482   24.8033 C   0  0  0  0  0  0  0  0  0  0  0  0
    9.0355   -3.0947   22.1047 C   0  0  0  0  0  0  0  0  0  0  0  0
    9.4841   -3.9469   22.6133 H   0  0  0  0  0  0  0  0  0  0  0  0
    7.9963    1.6516   24.7033 C   0  0  0  0  0  0  0  0  0  0  0  0
    8.6689   -2.3037   18.7556 H   0  0  0  0  0  0  0  0  0  0  0  0
    9.2770   -3.2750   20.6004 C   0  0  0  0  0  0  0  0  0  0  0  0
    9.1443   -4.3237   20.3381 H   0  0  0  0  0  0  0  0  0  0  0  0
    9.6278   -1.7909   22.6822 C   0  0  0  0  0  0  0  0  0  0  0  0
    8.3088   -2.4218   19.7732 C   0  0  0  0  0  0  0  0  0  0  0  0
    8.1913   -1.4330   20.2092 H   0  0  0  0  0  0  0  0  0  0  0  0
    9.7583    0.0625   24.2498 C   0  0  0  0  0  0  0  0  0  0  0  0
   10.4606   -2.1088   23.3203 H   0  0  0  0  0  0  0  0  0  0  0  0
   10.4246    2.2023   25.6888 Cl  0  0  0  0  0  0  0  0  0  0  0  0
 16 20  1  0  0  0  0
 11 20  1  0  0  0  0
 20 21  1  0  0  0  0
 17 20  1  0  0  0  0
 17 18  1  0  0  0  0
  1 17  1  0  0  0  0
 13 17  1  0  0  0  0
  4 19  1  0  0  0  0
  2 13  1  0  0  0  0
 13 14  1  0  0  0  0
 13 19  1  0  0  0  0
 19 23  1  0  0  0  0
  9 19  1  0  0  0  0
  5  7  1  0  0  0  0
  7  9  2  0  0  0  0
  6  7  1  0  0  0  0
  9 22  1  0  0  0  0
  3  6  1  0  0  0  0
  6 15  2  0  0  0  0
  8 22  1  0  0  0  0
 12 22  2  0  0  0  0
 12 15  1  0  0  0  0
 10 15  1  0  0  0  0
 12 24  1  0  0  0  0
M  END
> <Shapegauss>
-66.832619

$$$$
