stable:False satoms:20 tatoms:24 sratio:0.8333333333333334
  -OEChem-08052413573D

 24 24  0     0  0  0  0  0  0999 V2000
  -13.4882   -1.1439  -22.3434 H   0  0  0  0  0  0  0  0  0  0  0  0
  -12.1860   -0.8049  -25.0620 H   0  0  0  0  0  0  0  0  0  0  0  0
   -7.5300    1.8225  -25.6424 Cl  0  0  0  0  0  0  0  0  0  0  0  0
  -12.2401    0.7794  -22.7274 H   0  0  0  0  0  0  0  0  0  0  0  0
   -9.9414    0.3538  -25.0740 H   0  0  0  0  0  0  0  0  0  0  0  0
   -9.0574    2.3083  -24.9519 C   0  0  0  0  0  0  0  0  0  0  0  0
  -10.0974    1.3826  -24.7854 C   0  0  0  0  0  0  0  0  0  0  0  0
  -12.4745    3.5005  -23.6653 H   0  0  0  0  0  0  0  0  0  0  0  0
  -11.3222    1.7889  -24.2439 C   0  0  0  0  0  0  0  0  0  0  0  0
   -8.4216    4.3486  -24.6637 H   0  0  0  0  0  0  0  0  0  0  0  0
  -11.2260   -2.7577  -23.5640 H   0  0  0  0  0  0  0  0  0  0  0  0
  -10.4479    4.0184  -24.0507 C   0  0  0  0  0  0  0  0  0  0  0  0
  -12.8917   -0.4748  -24.3035 C   0  0  0  0  0  0  0  0  0  0  0  0
  -13.8700   -0.4059  -24.7770 H   0  0  0  0  0  0  0  0  0  0  0  0
   -9.2190    3.6248  -24.5597 C   0  0  0  0  0  0  0  0  0  0  0  0
  -11.6241   -2.5718  -21.8597 H   0  0  0  0  0  0  0  0  0  0  0  0
  -12.9811   -1.5500  -23.2127 C   0  0  0  0  0  0  0  0  0  0  0  0
  -13.5794   -2.3836  -23.5779 H   0  0  0  0  0  0  0  0  0  0  0  0
  -12.4843    0.9186  -23.7773 C   0  0  0  0  0  0  0  0  0  0  0  0
  -11.5912   -2.0615  -22.8176 C   0  0  0  0  0  0  0  0  0  0  0  0
  -10.8816   -1.2416  -22.7419 H   0  0  0  0  0  0  0  0  0  0  0  0
  -11.5050    3.1369  -23.9498 C   0  0  0  0  0  0  0  0  0  0  0  0
  -13.3810    1.5408  -23.8807 H   0  0  0  0  0  0  0  0  0  0  0  0
  -10.6878    5.6473  -23.5989 Cl  0  0  0  0  0  0  0  0  0  0  0  0
 16 20  1  0  0  0  0
 11 20  1  0  0  0  0
 20 21  1  0  0  0  0
 17 20  1  0  0  0  0
 17 18  1  0  0  0  0
  1 17  1  0  0  0  0
 13 17  1  0  0  0  0
  4 19  1  0  0  0  0
  2 13  1  0  0  0  0
 13 14  1  0  0  0  0
 13 19  1  0  0  0  0
 19 23  1  0  0  0  0
  9 19  1  0  0  0  0
  5  7  1  0  0  0  0
  7  9  2  0  0  0  0
  6  7  1  0  0  0  0
  9 22  1  0  0  0  0
  3  6  1  0  0  0  0
  6 15  2  0  0  0  0
  8 22  1  0  0  0  0
 12 22  2  0  0  0  0
 12 15  1  0  0  0  0
 10 15  1  0  0  0  0
 12 24  1  0  0  0  0
M  END
> <Chemgauss4>
-6.595311

$$$$
