stable:False satoms:20 tatoms:24 sratio:0.8333333333333334
  -OEChem-08052413573D

 24 24  0     0  0  0  0  0  0999 V2000
    6.8501   -2.6865   26.4903 H   0  0  0  0  0  0  0  0  0  0  0  0
    8.3152   -3.2503   23.8948 H   0  0  0  0  0  0  0  0  0  0  0  0
   13.4794   -1.9053   23.2307 Cl  0  0  0  0  0  0  0  0  0  0  0  0
    8.5310   -1.2179   25.8405 H   0  0  0  0  0  0  0  0  0  0  0  0
   10.7675   -2.6454   23.8576 H   0  0  0  0  0  0  0  0  0  0  0  0
   12.0797   -0.9555   23.6603 C   0  0  0  0  0  0  0  0  0  0  0  0
   10.8449   -1.5698   23.9138 C   0  0  0  0  0  0  0  0  0  0  0  0
    8.9846    1.2125   24.3484 H   0  0  0  0  0  0  0  0  0  0  0  0
    9.7270   -0.7950   24.2431 C   0  0  0  0  0  0  0  0  0  0  0  0
   13.1636    0.9072   23.5839 H   0  0  0  0  0  0  0  0  0  0  0  0
    8.7218   -4.9866   25.8439 H   0  0  0  0  0  0  0  0  0  0  0  0
   11.0912    1.1740   24.0579 C   0  0  0  0  0  0  0  0  0  0  0  0
    7.6738   -2.6141   24.4999 C   0  0  0  0  0  0  0  0  0  0  0  0
    6.7612   -2.4380   23.9323 H   0  0  0  0  0  0  0  0  0  0  0  0
   12.2146    0.4176   23.7582 C   0  0  0  0  0  0  0  0  0  0  0  0
    8.3030   -4.3464   27.4291 H   0  0  0  0  0  0  0  0  0  0  0  0
    7.2857   -3.3756   25.7740 C   0  0  0  0  0  0  0  0  0  0  0  0
    6.5252   -4.1168   25.5323 H   0  0  0  0  0  0  0  0  0  0  0  0
    8.3733   -1.2635   24.7661 C   0  0  0  0  0  0  0  0  0  0  0  0
    8.4975   -4.0801   26.3945 C   0  0  0  0  0  0  0  0  0  0  0  0
    9.3758   -3.4402   26.3674 H   0  0  0  0  0  0  0  0  0  0  0  0
    9.8532    0.5910   24.2368 C   0  0  0  0  0  0  0  0  0  0  0  0
    7.6535   -0.4980   24.4538 H   0  0  0  0  0  0  0  0  0  0  0  0
   11.2210    2.8744   24.1426 Cl  0  0  0  0  0  0  0  0  0  0  0  0
 16 20  1  0  0  0  0
 11 20  1  0  0  0  0
 20 21  1  0  0  0  0
 17 20  1  0  0  0  0
 17 18  1  0  0  0  0
  1 17  1  0  0  0  0
 13 17  1  0  0  0  0
  4 19  1  0  0  0  0
  2 13  1  0  0  0  0
 13 14  1  0  0  0  0
 13 19  1  0  0  0  0
 19 23  1  0  0  0  0
  9 19  1  0  0  0  0
  5  7  1  0  0  0  0
  7  9  2  0  0  0  0
  6  7  1  0  0  0  0
  9 22  1  0  0  0  0
  3  6  1  0  0  0  0
  6 15  2  0  0  0  0
  8 22  1  0  0  0  0
 12 22  2  0  0  0  0
 12 15  1  0  0  0  0
 10 15  1  0  0  0  0
 12 24  1  0  0  0  0
M  END
> <Chemgauss4>
-6.431028

$$$$
