stable:False satoms:18 tatoms:24 sratio:0.75
  -OEChem-07092417373D

 24 24  0     0  0  0  0  0  0999 V2000
    7.1755   -4.6544   26.1180 H   0  0  0  0  0  0  0  0  0  0  0  0
    8.2542   -4.3346   26.0864 C   0  0  0  0  0  0  0  0  0  0  0  0
    8.9034   -5.2312   26.0622 H   0  0  0  0  0  0  0  0  0  0  0  0
    8.4800   -3.7749   27.0271 H   0  0  0  0  0  0  0  0  0  0  0  0
    8.4593   -3.5331   24.9736 N   0  0  0  0  0  0  0  0  0  0  0  0
    9.3475   -3.2083   24.1811 N   0  0  0  0  0  0  0  0  0  0  0  0
    9.2360   -2.0356   23.7416 N   0  0  0  0  0  0  0  0  0  0  0  0
   10.6122   -0.8430   23.2145 C   0  0  0  0  0  0  0  0  0  0  0  0
   10.0377   -1.1033   24.3087 N   0  0  0  0  0  0  0  0  0  0  0  0
   12.0849    0.4382   23.5299 H   0  0  0  0  0  0  0  0  0  0  0  0
   12.8668   -0.8253   24.1474 H   0  0  0  0  0  0  0  0  0  0  0  0
   12.6182   -1.1609   22.4794 H   0  0  0  0  0  0  0  0  0  0  0  0
   12.1531   -0.6471   23.3273 C   0  0  0  0  0  0  0  0  0  0  0  0
    9.9099   -0.5752   22.1701 N   0  0  0  0  0  0  0  0  0  0  0  0
    8.3575    0.3282   20.9664 C   0  3  0  0  0  0  0  0  0  0  0  0
    8.9877    1.1938   20.8345 H   0  0  0  0  0  0  0  0  0  0  0  0
    8.6530   -0.6295   21.6692 N   0  0  0  0  0  0  0  0  0  0  0  0
    7.1592    0.2827   20.1208 C   0  0  0  0  0  0  0  0  0  0  0  0
    7.3364   -0.1437   18.9184 N   0  0  0  0  0  0  0  0  0  0  0  0
    6.6916    0.1064   17.9147 N   0  0  0  0  0  0  0  0  0  0  0  0
    5.7150    0.6168   18.2890 C   0  0  0  0  0  0  0  0  0  0  0  0
    5.2594    0.8773   19.3538 C   0  0  0  0  0  0  0  0  0  0  0  0
    5.8453    0.7049   20.4353 C   0  0  0  0  0  0  0  0  0  0  0  0
    5.4404    0.8618   21.4273 H   0  0  0  0  0  0  0  0  0  0  0  0
 20 21  2  0  0  0  0
 19 20  1  0  0  0  0
 21 22  1  0  0  0  0
 18 19  2  0  0  0  0
 22 23  2  0  0  0  0
 18 23  1  0  0  0  0
 15 18  1  0  0  0  0
 23 24  1  0  0  0  0
 15 16  1  0  0  0  0
 15 17  1  0  0  0  0
 14 17  1  0  0  0  0
  8 14  1  0  0  0  0
 12 13  1  0  0  0  0
  8 13  1  0  0  0  0
  8  9  2  3  0  0  0
 10 13  1  0  0  0  0
 11 13  1  0  0  0  0
  6  7  1  0  0  0  0
  7  9  1  0  0  0  0
  5  6  2  3  0  0  0
  2  5  1  0  0  0  0
  2  3  1  0  0  0  0
  1  2  1  0  0  0  0
  2  4  1  0  0  0  0
M  CHG  1  15   1
M  END
> <Shapegauss>
-199.441315

$$$$
