stable:False satoms:18 tatoms:24 sratio:0.75
  -OEChem-08062408123D

 29 29  0     0  0  0  0  0  0999 V2000
    6.4230   -5.3999   25.1049 H   0  0  0  0  0  0  0  0  0  0  0  0
    7.5100   -5.1341   25.2261 C   0  0  0  0  0  0  0  0  0  0  0  0
    8.1236   -6.0531   25.1566 H   0  0  0  0  0  0  0  0  0  0  0  0
    7.6526   -4.7048   26.2481 H   0  0  0  0  0  0  0  0  0  0  0  0
    7.8657   -4.2151   24.2504 N   0  0  0  0  0  0  0  0  0  0  0  0
    8.8469   -3.8424   23.6017 N   0  0  0  0  0  0  0  0  0  0  0  0
    8.8285   -2.6209   23.3043 N   0  0  0  0  0  0  0  0  0  0  0  0
   10.2981   -1.4451   23.0774 C   0  0  0  0  0  0  0  0  0  0  0  0
    9.5980   -1.8064   24.0644 N   0  0  0  0  0  0  0  0  0  0  0  0
   11.7748   -0.2884   23.7028 H   0  0  0  0  0  0  0  0  0  0  0  0
   12.4362   -1.6557   24.2341 H   0  0  0  0  0  0  0  0  0  0  0  0
   12.3590   -1.7735   22.5203 H   0  0  0  0  0  0  0  0  0  0  0  0
   11.8237   -1.3432   23.3733 C   0  0  0  0  0  0  0  0  0  0  0  0
    9.7248   -1.0171   22.0078 N   0  0  0  0  0  0  0  0  0  0  0  0
    8.3486    0.1035   20.7729 C   0  0  0  0  0  2  0  0  0  0  0  0
    8.5291   -0.9461   21.3763 N   0  3  0  0  0  0  0  0  0  0  0  0
    7.2491    0.2221   19.8085 C   0  0  0  0  0  0  0  0  0  0  0  0
    7.5405   -0.0639   18.5869 N   0  0  0  0  0  0  0  0  0  0  0  0
    7.0192    0.3386   17.5612 N   0  0  0  0  0  0  0  0  0  0  0  0
    6.0275    0.8490   17.8934 C   0  0  0  0  0  0  0  0  0  0  0  0
    5.4684    1.0015   18.9294 C   0  0  0  0  0  0  0  0  0  0  0  0
    5.9256    0.6696   20.0355 C   0  0  0  0  0  0  0  0  0  0  0  0
    5.4209    0.7255   20.9919 H   0  0  0  0  0  0  0  0  0  0  0  0
    8.2760   -2.2703   22.5480 H   0  0  0  0  0  0  0  0  0  0  0  0
   10.4141   -0.5759   21.4331 H   0  0  0  0  0  0  0  0  0  0  0  0
    7.8057   -1.0449   22.0596 H   0  0  0  0  0  0  0  0  0  0  0  0
    5.4900    1.2865   17.0651 H   0  0  0  0  0  0  0  0  0  0  0  0
    4.4917    1.4620   18.9087 H   0  0  0  0  0  0  0  0  0  0  0  0
    8.4738   -1.6995   20.7210 H   0  0  0  0  0  0  0  0  0  0  0  0
 19 20  2  0  0  0  0
 18 19  1  0  0  0  0
 20 21  1  0  0  0  0
 17 18  2  0  0  0  0
 21 22  2  0  0  0  0
 17 22  1  0  0  0  0
 15 17  1  0  0  0  0
 22 23  1  0  0  0  0
 15 16  1  0  0  0  0
 14 16  1  0  0  0  0
  8 14  1  0  0  0  0
 12 13  1  0  0  0  0
  8 13  1  0  0  0  0
  8  9  2  3  0  0  0
 10 13  1  0  0  0  0
 11 13  1  0  0  0  0
  6  7  1  0  0  0  0
  7  9  1  0  0  0  0
  5  6  2  3  0  0  0
  2  5  1  0  0  0  0
  2  3  1  0  0  0  0
  1  2  1  0  0  0  0
  2  4  1  0  0  0  0
  7 24  1  0  0  0  0
 14 25  1  0  0  0  0
 16 26  1  0  0  0  0
 20 27  1  0  0  0  0
 21 28  1  0  0  0  0
 16 29  1  0  0  0  0
M  CHG  1  16   1
M  END
> <Chemgauss4>
-7.770914

$$$$
