stable:False satoms:18 tatoms:24 sratio:0.75
  -OEChem-08062408123D

 29 29  0     0  0  0  0  0  0999 V2000
   -6.2024   -5.3350  -25.0930 H   0  0  0  0  0  0  0  0  0  0  0  0
   -7.2894   -5.0692  -25.2141 C   0  0  0  0  0  0  0  0  0  0  0  0
   -7.9030   -5.9882  -25.1447 H   0  0  0  0  0  0  0  0  0  0  0  0
   -7.4319   -4.6399  -26.2362 H   0  0  0  0  0  0  0  0  0  0  0  0
   -7.6451   -4.1502  -24.2385 N   0  0  0  0  0  0  0  0  0  0  0  0
   -8.6262   -3.7775  -23.5898 N   0  0  0  0  0  0  0  0  0  0  0  0
   -8.6078   -2.5560  -23.2923 N   0  0  0  0  0  0  0  0  0  0  0  0
  -10.0775   -1.3802  -23.0654 C   0  0  0  0  0  0  0  0  0  0  0  0
   -9.3774   -1.7415  -24.0525 N   0  0  0  0  0  0  0  0  0  0  0  0
  -11.5542   -0.2235  -23.6909 H   0  0  0  0  0  0  0  0  0  0  0  0
  -12.2156   -1.5908  -24.2221 H   0  0  0  0  0  0  0  0  0  0  0  0
  -12.1384   -1.7086  -22.5084 H   0  0  0  0  0  0  0  0  0  0  0  0
  -11.6031   -1.2783  -23.3614 C   0  0  0  0  0  0  0  0  0  0  0  0
   -9.5042   -0.9522  -21.9958 N   0  0  0  0  0  0  0  0  0  0  0  0
   -8.1280    0.1684  -20.7609 C   0  0  0  0  0  2  0  0  0  0  0  0
   -8.3085   -0.8812  -21.3643 N   0  3  0  0  0  0  0  0  0  0  0  0
   -7.0285    0.2870  -19.7965 C   0  0  0  0  0  0  0  0  0  0  0  0
   -7.3199    0.0010  -18.5749 N   0  0  0  0  0  0  0  0  0  0  0  0
   -6.7986    0.4035  -17.5493 N   0  0  0  0  0  0  0  0  0  0  0  0
   -5.8069    0.9139  -17.8814 C   0  0  0  0  0  0  0  0  0  0  0  0
   -5.2478    1.0664  -18.9175 C   0  0  0  0  0  0  0  0  0  0  0  0
   -5.7050    0.7345  -20.0236 C   0  0  0  0  0  0  0  0  0  0  0  0
   -5.2002    0.7904  -20.9800 H   0  0  0  0  0  0  0  0  0  0  0  0
   -8.0554   -2.2054  -22.5361 H   0  0  0  0  0  0  0  0  0  0  0  0
  -10.1934   -0.5110  -21.4211 H   0  0  0  0  0  0  0  0  0  0  0  0
   -7.5851   -0.9800  -22.0477 H   0  0  0  0  0  0  0  0  0  0  0  0
   -5.2694    1.3514  -17.0532 H   0  0  0  0  0  0  0  0  0  0  0  0
   -4.2711    1.5268  -18.8967 H   0  0  0  0  0  0  0  0  0  0  0  0
   -8.2532   -1.6346  -20.7091 H   0  0  0  0  0  0  0  0  0  0  0  0
 19 20  2  0  0  0  0
 18 19  1  0  0  0  0
 20 21  1  0  0  0  0
 17 18  2  0  0  0  0
 21 22  2  0  0  0  0
 17 22  1  0  0  0  0
 15 17  1  0  0  0  0
 22 23  1  0  0  0  0
 15 16  1  0  0  0  0
 14 16  1  0  0  0  0
  8 14  1  0  0  0  0
 12 13  1  0  0  0  0
  8 13  1  0  0  0  0
  8  9  2  3  0  0  0
 10 13  1  0  0  0  0
 11 13  1  0  0  0  0
  6  7  1  0  0  0  0
  7  9  1  0  0  0  0
  5  6  2  3  0  0  0
  2  5  1  0  0  0  0
  2  3  1  0  0  0  0
  1  2  1  0  0  0  0
  2  4  1  0  0  0  0
  7 24  1  0  0  0  0
 14 25  1  0  0  0  0
 16 26  1  0  0  0  0
 20 27  1  0  0  0  0
 21 28  1  0  0  0  0
 16 29  1  0  0  0  0
M  CHG  1  16   1
M  END
> <Chemgauss4>
-7.689569

$$$$
