
 OpenBabel07202414153D

 48 50  0  0  0  0  0  0  0  0999 V2000
    0.9609   -0.2299   -0.0606 C   0  0  0  0  0  0  0  0  0  0  0  0
    2.4480   -0.1383   -0.2005 C   0  0  0  0  0  0  0  0  0  0  0  0
    3.2415    0.9983   -0.3735 C   0  0  0  0  0  0  0  0  0  0  0  0
    4.6197    0.5769   -0.2991 C   0  0  0  0  0  0  0  0  0  0  0  0
    5.8623    1.2706   -0.3617 C   0  0  0  0  0  0  0  0  0  0  0  0
    7.0674    0.5923   -0.1289 C   0  0  0  0  0  0  0  0  0  0  0  0
    7.0547   -0.7844    0.0503 C   0  0  0  0  0  0  0  0  0  0  0  0
    5.8524   -1.5003    0.0590 C   0  0  0  0  0  0  0  0  0  0  0  0
    4.6312   -0.8129   -0.1056 C   0  0  0  0  0  0  0  0  0  0  0  0
    3.3066   -1.2241   -0.1099 N   0  0  0  0  0  0  0  0  0  0  0  0
    2.7701   -2.8620    0.0358 S   0  0  0  0  0  0  0  0  0  0  0  0
    3.9529   -3.7012    0.0392 O   0  0  0  0  0  0  0  0  0  0  0  0
    1.8690   -2.8580    1.1690 O   0  0  0  0  0  0  0  0  0  0  0  0
    1.8478   -3.2944   -1.4159 C   0  0  0  0  0  0  0  0  0  0  0  0
    8.3312    1.2833   -0.0373 N   0  0  0  0  0  0  0  0  0  0  0  0
    8.5668    2.1611    1.0694 C   0  0  0  0  0  0  0  0  0  0  0  0
    9.4461    3.0156    1.0072 O   0  0  0  0  0  0  0  0  0  0  0  0
    7.8050    2.0019    2.3016 C   0  0  0  0  0  0  0  0  0  0  0  0
    7.6633    2.8780    3.3664 C   0  0  0  0  0  0  0  0  0  0  0  0
    6.8416    2.2401    4.3244 C   0  0  0  0  0  0  0  0  0  0  0  0
    6.5464    1.0032    3.8062 C   0  0  0  0  0  0  0  0  0  0  0  0
    7.1417    0.8424    2.5989 O   0  0  0  0  0  0  0  0  0  0  0  0
    9.0838    1.5822   -1.5230 S   0  0  0  0  0  0  0  0  0  0  0  0
    8.8526    0.4421   -2.3933 O   0  0  0  0  0  0  0  0  0  0  0  0
    8.7265    2.9132   -1.9689 O   0  0  0  0  0  0  0  0  0  0  0  0
   10.8279    1.5412   -1.1267 C   0  0  0  0  0  0  0  0  0  0  0  0
    2.7364    2.3650   -0.5429 C   0  0  0  0  0  0  0  0  0  0  0  0
    1.6302    2.6231   -1.0015 O   0  0  0  0  0  0  0  0  0  0  0  0
    3.6319    3.3008   -0.1218 O   0  0  0  0  0  0  0  0  0  0  0  0
    3.2262    4.6627   -0.2632 C   0  0  0  0  0  0  0  0  0  0  0  0
    0.4941    0.7541    0.0281 H   0  0  0  0  0  0  0  0  0  0  0  0
    0.6756   -0.7704    0.8452 H   0  0  0  0  0  0  0  0  0  0  0  0
    0.5116   -0.7142   -0.9288 H   0  0  0  0  0  0  0  0  0  0  0  0
    5.8775    2.3426   -0.5432 H   0  0  0  0  0  0  0  0  0  0  0  0
    7.9863   -1.3196    0.2175 H   0  0  0  0  0  0  0  0  0  0  0  0
    5.9000   -2.5716    0.2331 H   0  0  0  0  0  0  0  0  0  0  0  0
    2.4857   -3.1803   -2.2929 H   0  0  0  0  0  0  0  0  0  0  0  0
    0.9546   -2.6804   -1.5021 H   0  0  0  0  0  0  0  0  0  0  0  0
    1.5436   -4.3400   -1.3163 H   0  0  0  0  0  0  0  0  0  0  0  0
    8.1069    3.8649    3.4293 H   0  0  0  0  0  0  0  0  0  0  0  0
    6.5096    2.6284    5.2773 H   0  0  0  0  0  0  0  0  0  0  0  0
    5.9623    0.1619    4.1547 H   0  0  0  0  0  0  0  0  0  0  0  0
   11.0525    0.6174   -0.5902 H   0  0  0  0  0  0  0  0  0  0  0  0
   11.1155    2.4170   -0.5468 H   0  0  0  0  0  0  0  0  0  0  0  0
   11.3809    1.5558   -2.0699 H   0  0  0  0  0  0  0  0  0  0  0  0
    3.7278    5.2429    0.5167 H   0  0  0  0  0  0  0  0  0  0  0  0
    2.1469    4.8001   -0.1464 H   0  0  0  0  0  0  0  0  0  0  0  0
    3.5556    5.0313   -1.2384 H   0  0  0  0  0  0  0  0  0  0  0  0
  1  2  1  0  0  0  0
  1 31  1  0  0  0  0
  1 32  1  0  0  0  0
  1 33  1  0  0  0  0
  2  3  2  0  0  0  0
  2 10  1  0  0  0  0
  3  4  1  0  0  0  0
  3 27  1  0  0  0  0
  4  5  1  0  0  0  0
  4  9  2  0  0  0  0
  5  6  2  0  0  0  0
  5 34  1  0  0  0  0
  6  7  1  0  0  0  0
  6 15  1  0  0  0  0
  7  8  2  0  0  0  0
  7 35  1  0  0  0  0
  8  9  1  0  0  0  0
  8 36  1  0  0  0  0
  9 10  1  0  0  0  0
 10 11  1  0  0  0  0
 11 12  2  0  0  0  0
 11 13  2  0  0  0  0
 11 14  1  0  0  0  0
 14 37  1  0  0  0  0
 14 38  1  0  0  0  0
 14 39  1  0  0  0  0
 15 16  1  0  0  0  0
 15 23  1  0  0  0  0
 16 17  2  0  0  0  0
 16 18  1  0  0  0  0
 18 19  2  0  0  0  0
 18 22  1  0  0  0  0
 19 20  1  0  0  0  0
 19 40  1  0  0  0  0
 20 21  2  0  0  0  0
 20 41  1  0  0  0  0
 21 22  1  0  0  0  0
 21 42  1  0  0  0  0
 23 24  2  0  0  0  0
 23 25  2  0  0  0  0
 23 26  1  0  0  0  0
 26 43  1  0  0  0  0
 26 44  1  0  0  0  0
 26 45  1  0  0  0  0
 27 28  2  0  0  0  0
 27 29  1  0  0  0  0
 29 30  1  0  0  0  0
 30 46  1  0  0  0  0
 30 47  1  0  0  0  0
 30 48  1  0  0  0  0
M  END
$$$$
