stable:False satoms:11 tatoms:24 sratio:0.4583333333333333
  -OEChem-07092417483D

 24 26  0     1  0  0  0  0  0999 V2000
    6.5747   -4.8636   26.4154 C   0  0  0  0  0  0  0  0  0  0  0  0
    8.2109   -4.3021   26.0986 S   0  0  0  0  0  0  0  0  0  0  0  0
    9.0554   -5.4797   26.0647 O   0  0  0  0  0  0  0  0  0  0  0  0
    8.5953   -3.4236   27.1708 O   0  0  0  0  0  0  0  0  0  0  0  0
    8.1156   -3.5707   24.7188 N   0  0  0  0  0  0  0  0  0  0  0  0
    9.0065   -2.9298   24.1610 C   0  0  0  0  0  0  0  0  0  0  0  0
    9.4418   -1.9742   23.5083 C   0  0  0  0  0  0  0  0  0  0  0  0
   10.3487   -1.1043   23.2856 C   0  0  1  0  0  0  0  0  0  0  0  0
   11.0192   -0.0133   24.2766 C   0  0  0  0  0  0  0  0  0  0  0  0
   12.1039    0.3020   24.2265 C   0  0  0  0  0  0  0  0  0  0  0  0
   13.1452   -0.1158   23.4813 C   0  0  0  0  0  0  0  0  0  0  0  0
   12.7607   -1.2625   22.6146 C   0  0  0  0  0  0  0  0  0  0  0  0
   11.8325   -1.7367   22.5313 C   0  0  0  0  0  0  0  0  0  0  0  0
    9.6832   -0.6081   22.3651 C   0  0  3  0  0  0  0  0  0  0  0  0
    9.0558    0.0108   21.3789 C   0  0  0  0  0  0  0  0  0  0  0  0
    9.5645    0.9520   20.9661 O   0  0  0  0  0  0  0  0  0  0  0  0
    7.9148   -0.5689   21.0784 N   0  0  0  0  0  0  0  0  0  0  0  0
    7.1813   -0.0865   20.1726 C   0  0  0  0  0  0  0  0  0  0  0  0
    7.2325   -0.0075   18.8502 C   0  0  0  0  0  0  0  0  0  0  0  0
    6.7590    0.2979   17.7786 N   0  0  0  0  0  0  0  0  0  0  0  0
    5.5922    0.9100   18.2270 C   0  0  0  0  0  0  0  0  0  0  0  0
    5.2456    0.9828   19.4036 C   0  0  0  0  0  0  0  0  0  0  0  0
    5.8148    0.5782   20.5525 C   0  0  0  0  0  0  0  0  0  0  0  0
    5.3297    0.7234   21.9702 C   0  0  0  0  0  0  0  0  0  0  0  0
 20 21  2  0  0  0  0
 19 20  1  0  0  0  0
 21 22  1  0  0  0  0
 18 19  2  0  0  0  0
 22 23  2  0  0  0  0
 18 23  1  0  0  0  0
 17 18  1  0  0  0  0
 23 24  1  0  0  0  0
 15 16  2  0  0  0  0
 15 17  1  0  0  0  0
 14 15  1  0  0  0  0
  8 14  1  0  0  0  0
  7 14  1  0  0  0  0
 12 13  1  0  0  0  0
  8 13  1  0  0  0  0
 11 12  2  0  0  0  0
  7  8  1  0  0  0  0
  8  9  1  0  0  0  0
 10 11  1  0  0  0  0
  6  7  2  3  0  0  0
  5  6  1  0  0  0  0
  9 10  2  0  0  0  0
  2  5  1  0  0  0  0
  2  3  2  0  0  0  0
  1  2  1  0  0  0  0
  2  4  2  0  0  0  0
M  END
> <Shapegauss>
-285.527740

$$$$
