FMN(B-177)
  -OEChem-07252408253D

 51 53  0     1  0  0  0  0  0999 V2000
    0.6521   53.1667   23.8872 P   0  0  0  0  0  0  0  0  0  0  0  0
    0.4036   61.9048   24.9044 N   0  0  0  0  0  0  0  0  0  0  0  0
    0.2400   62.6114   26.0733 C   0  0  0  0  0  0  0  0  0  0  0  0
    1.1422   62.7118   26.8604 O   0  0  0  0  0  0  0  0  0  0  0  0
   -0.9785   63.2229   26.3966 N   0  0  0  0  0  0  0  0  0  0  0  0
   -2.0903   63.1013   25.6136 C   0  0  0  0  0  0  0  0  0  0  0  0
   -3.1476   63.5977   25.9095 O   0  0  0  0  0  0  0  0  0  0  0  0
   -2.9833   62.2620   23.5516 N   0  0  0  0  0  0  0  0  0  0  0  0
   -3.8739   61.5681   21.4031 C   0  0  0  0  0  0  0  0  0  0  0  0
   -3.7354   60.8698   20.1842 C   0  0  0  0  0  0  0  0  0  0  0  0
   -2.5022   60.1408   19.9169 C   0  0  0  0  0  0  0  0  0  0  0  0
   -1.5592   60.0581   20.9130 C   0  0  0  0  0  0  0  0  0  0  0  0
    0.6741   60.1614   22.7780 C   0  0  0  0  0  0  0  0  0  0  0  0
   -0.6386   61.7440   24.1159 C   0  0  0  0  0  0  0  0  0  0  0  0
   -0.5654   60.9054   23.0400 N   0  3  0  0  0  0  0  0  0  0  0  0
    1.2120   52.4648   22.7700 O   0  5  0  0  0  0  0  0  0  0  0  0
    0.6118   58.7137   23.2675 C   0  0  2  0  0  0  0  0  0  0  0  0
    0.4481   58.5767   24.6855 O   0  0  0  0  0  0  0  0  0  0  0  0
   -0.7867   53.3667   23.8182 O   0  5  0  0  0  0  0  0  0  0  0  0
    1.8790   57.9726   22.8243 C   0  0  2  0  0  0  0  0  0  0  0  0
    1.8721   57.8154   21.3918 O   0  0  0  0  0  0  0  0  0  0  0  0
    0.9803   52.3851   25.0406 O   0  0  0  0  0  0  0  0  0  0  0  0
    2.2364   56.6366   23.5310 C   0  0  2  0  0  0  0  0  0  0  0  0
    3.5720   56.2398   23.1865 O   0  0  0  0  0  0  0  0  0  0  0  0
   -1.9498   62.3305   24.3620 C   0  0  0  0  0  0  0  0  0  0  0  0
    1.1274   55.5894   23.3621 C   0  0  0  0  0  0  0  0  0  0  0  0
    1.3574   54.4368   24.1790 O   0  0  0  0  0  0  0  0  0  0  0  0
   -2.8419   61.5374   22.3949 C   0  0  0  0  0  0  0  0  0  0  0  0
   -4.8591   60.8587   19.1736 C   0  0  0  0  0  0  0  0  0  0  0  0
   -2.2221   59.4661   18.5843 C   0  0  0  0  0  0  0  0  0  0  0  0
   -1.6593   60.7798   22.1274 C   0  0  0  0  0  0  0  0  0  0  0  0
   -1.0365   63.7689   27.2325 H   0  0  0  0  0  0  0  0  0  0  0  0
   -4.7744   62.1350   21.5909 H   0  0  0  0  0  0  0  0  0  0  0  0
   -0.7047   59.4146   20.7639 H   0  0  0  0  0  0  0  0  0  0  0  0
    0.8594   60.1579   21.6933 H   0  0  0  0  0  0  0  0  0  0  0  0
    0.1654   56.0405   23.6456 H   0  0  0  0  0  0  0  0  0  0  0  0
    1.5045   60.6705   23.2898 H   0  0  0  0  0  0  0  0  0  0  0  0
    1.0894   55.2776   22.3082 H   0  0  0  0  0  0  0  0  0  0  0  0
   -0.2423   58.2329   22.7675 H   0  0  0  0  0  0  0  0  0  0  0  0
   -0.2885   59.1035   24.9720 H   0  0  0  0  0  0  0  0  0  0  0  0
    2.7108   58.6531   23.0574 H   0  0  0  0  0  0  0  0  0  0  0  0
    2.6438   58.2291   21.0238 H   0  0  0  0  0  0  0  0  0  0  0  0
    2.2504   56.8744   24.6052 H   0  0  0  0  0  0  0  0  0  0  0  0
    4.0041   56.9482   22.7238 H   0  0  0  0  0  0  0  0  0  0  0  0
   -5.7044   61.4470   19.5587 H   0  0  0  0  0  0  0  0  0  0  0  0
   -2.2331   60.2188   17.7823 H   0  0  0  0  0  0  0  0  0  0  0  0
   -4.5065   61.2982   18.2286 H   0  0  0  0  0  0  0  0  0  0  0  0
   -1.2351   58.9819   18.6194 H   0  0  0  0  0  0  0  0  0  0  0  0
   -5.1838   59.8222   18.9975 H   0  0  0  0  0  0  0  0  0  0  0  0
   -2.9950   58.7085   18.3876 H   0  0  0  0  0  0  0  0  0  0  0  0
    1.2941   61.5217   24.6589 H   0  0  0  0  0  0  0  0  0  0  0  0
  1 16  1  0  0  0  0
  1 19  1  0  0  0  0
  1 22  2  0  0  0  0
  1 27  1  0  0  0  0
  2  3  1  0  0  0  0
  2 14  1  0  0  0  0
  3  4  2  0  0  0  0
  3  5  1  0  0  0  0
  5  6  1  0  0  0  0
  5 32  1  0  0  0  0
  6  7  2  0  0  0  0
  6 25  1  0  0  0  0
  8 25  2  0  0  0  0
  8 28  1  0  0  0  0
  9 10  2  0  0  0  0
  9 28  1  0  0  0  0
  9 33  1  0  0  0  0
 10 11  1  0  0  0  0
 10 29  1  0  0  0  0
 11 12  2  0  0  0  0
 11 30  1  0  0  0  0
 12 31  1  0  0  0  0
 12 34  1  0  0  0  0
 13 15  1  0  0  0  0
 13 17  1  0  0  0  0
 13 35  1  0  0  0  0
 13 37  1  0  0  0  0
 14 15  2  0  0  0  0
 14 25  1  0  0  0  0
 15 31  1  0  0  0  0
 17 18  1  0  0  0  0
 17 20  1  0  0  0  0
 17 39  1  0  0  0  0
 18 40  1  0  0  0  0
 20 21  1  0  0  0  0
 20 23  1  0  0  0  0
 20 41  1  0  0  0  0
 21 42  1  0  0  0  0
 23 24  1  0  0  0  0
 23 26  1  0  0  0  0
 23 43  1  0  0  0  0
 24 44  1  0  0  0  0
 26 27  1  0  0  0  0
 26 36  1  0  0  0  0
 26 38  1  0  0  0  0
 28 31  2  0  0  0  0
 29 45  1  0  0  0  0
 29 47  1  0  0  0  0
 29 49  1  0  0  0  0
 30 46  1  0  0  0  0
 30 48  1  0  0  0  0
 30 50  1  0  0  0  0
  2 51  1  0  0  0  0
M  CHG  3  15   1  16  -1  19  -1
M  END
> <Chemgauss4>
-26.539015

$$$$
