stable:False satoms:18 tatoms:24 sratio:0.75
  -OEChem-08062401343D

 28 27  0     1  0  0  0  0  0999 V2000
    1.8026    3.8240   21.1739 H   0  0  0  0  0  0  0  0  0  0  0  0
    1.8081    3.7741   20.0609 C   0  0  0  0  0  0  0  0  0  0  0  0
    1.7623    4.8077   19.6764 H   0  0  0  0  0  0  0  0  0  0  0  0
    0.9018    3.2391   19.7437 H   0  0  0  0  0  0  0  0  0  0  0  0
    4.6291    1.8147   19.4309 C   0  0  0  0  0  0  0  0  0  0  0  0
    2.8724    3.0676   19.5139 C   0  0  0  0  0  0  0  0  0  0  0  0
    4.7392    0.6773   19.9796 N   0  3  0  0  0  0  0  0  0  0  0  0
    3.5331    2.3112   18.8479 N   0  0  0  0  0  0  0  0  0  0  0  0
    5.2307   -1.1019   19.2377 H   0  0  0  0  0  0  0  0  0  0  0  0
    6.5465   -0.6820   17.3627 H   0  0  0  0  0  0  0  0  0  0  0  0
    5.1634    0.3709   17.1911 H   0  0  0  0  0  0  0  0  0  0  0  0
    6.0656    0.2028   17.7839 C   0  0  0  0  0  0  0  0  0  0  0  0
    6.7323    1.0646   17.7312 H   0  0  0  0  0  0  0  0  0  0  0  0
    5.7099   -0.0908   19.2927 C   0  0  1  0  0  0  0  0  0  0  0  0
    5.6002    2.3353   19.3429 H   0  0  0  0  0  0  0  0  0  0  0  0
    6.9007   -0.2782   20.1322 O   0  0  0  0  0  0  0  0  0  0  0  0
    7.0809    1.7880   20.8107 O   0  0  0  0  0  0  0  0  0  0  0  0
    7.3762    0.7117   20.9794 C   0  0  0  0  0  0  0  0  0  0  0  0
    8.6039    0.5099   22.2852 C   0  0  0  0  0  0  0  0  0  0  0  0
    9.3588    0.2007   21.5127 H   0  0  0  0  0  0  0  0  0  0  0  0
    9.6061    0.9715   22.8992 H   0  0  0  0  0  0  0  0  0  0  0  0
    7.9643    1.1390   22.9550 H   0  0  0  0  0  0  0  0  0  0  0  0
    8.1741   -0.8194   22.6910 O   0  0  0  0  0  0  0  0  0  0  0  0
    7.2273   -0.9112   22.8962 H   0  0  0  0  0  0  0  0  0  0  0  0
    3.2366    2.6851   20.4789 H   0  0  0  0  0  0  0  0  0  0  0  0
    3.4460    3.9637   19.2346 H   0  0  0  0  0  0  0  0  0  0  0  0
    3.2763    2.0687   17.9124 H   0  0  0  0  0  0  0  0  0  0  0  0
    4.2195    0.3695   20.7765 H   0  0  0  0  0  0  0  0  0  0  0  0
 19 21  1  0  0  0  0
 19 20  1  0  0  0  0
 19 22  1  0  0  0  0
 19 23  1  0  0  0  0
 18 19  1  0  0  0  0
 23 24  1  0  0  0  0
 17 18  2  0  0  0  0
 16 18  1  0  0  0  0
 12 13  1  0  0  0  0
 14 16  1  0  0  0  0
  5 15  1  0  0  0  0
 10 12  1  0  0  0  0
 12 14  1  0  0  0  0
 11 12  1  0  0  0  0
  7 14  1  0  0  0  0
  9 14  1  0  0  0  0
  5  7  2  3  0  0  0
  5  8  1  0  0  0  0
  6  8  1  0  0  0  0
  2  6  1  0  0  0  0
  2  3  1  0  0  0  0
  1  2  1  0  0  0  0
  2  4  1  0  0  0  0
  6 25  1  0  0  0  0
  6 26  1  0  0  0  0
  8 27  1  0  0  0  0
  7 28  1  0  0  0  0
M  CHG  1   7   1
M  END
> <Chemgauss4>
-6.387534

$$$$
