stable:False satoms:18 tatoms:24 sratio:0.75
  -OEChem-08062401343D

 28 27  0     1  0  0  0  0  0999 V2000
   -1.4321    3.4784  -21.1382 H   0  0  0  0  0  0  0  0  0  0  0  0
   -1.5129    3.4294  -20.0281 C   0  0  0  0  0  0  0  0  0  0  0  0
   -1.3648    4.4496  -19.6335 H   0  0  0  0  0  0  0  0  0  0  0  0
   -0.7003    2.7872  -19.6597 H   0  0  0  0  0  0  0  0  0  0  0  0
   -4.5861    1.8307  -19.5884 C   0  0  0  0  0  0  0  0  0  0  0  0
   -2.6875    2.8587  -19.5533 C   0  0  0  0  0  0  0  0  0  0  0  0
   -4.8004    0.7156  -20.1516 N   0  3  0  0  0  0  0  0  0  0  0  0
   -3.4760    2.1890  -18.9351 N   0  0  0  0  0  0  0  0  0  0  0  0
   -5.5511   -0.9900  -19.4551 H   0  0  0  0  0  0  0  0  0  0  0  0
   -6.9196   -0.4121  -17.6617 H   0  0  0  0  0  0  0  0  0  0  0  0
   -5.4313    0.4632  -17.3970 H   0  0  0  0  0  0  0  0  0  0  0  0
   -6.3087    0.4071  -18.0456 C   0  0  0  0  0  0  0  0  0  0  0  0
   -6.8669    1.3442  -18.0274 H   0  0  0  0  0  0  0  0  0  0  0  0
   -5.8986    0.0722  -19.5318 C   0  0  1  0  0  0  0  0  0  0  0  0
   -5.4898    2.4665  -19.5564 H   0  0  0  0  0  0  0  0  0  0  0  0
   -7.0488    0.0324  -20.4445 O   0  0  0  0  0  0  0  0  0  0  0  0
   -6.9322    2.1052  -21.1169 O   0  0  0  0  0  0  0  0  0  0  0  0
   -7.3460    1.0732  -21.3118 C   0  0  0  0  0  0  0  0  0  0  0  0
   -8.5057    1.0237  -22.6923 C   0  0  0  0  0  0  0  0  0  0  0  0
   -9.3393    0.8094  -21.9702 H   0  0  0  0  0  0  0  0  0  0  0  0
   -9.4037    1.6049  -23.3634 H   0  0  0  0  0  0  0  0  0  0  0  0
   -7.7534    1.5697  -23.3165 H   0  0  0  0  0  0  0  0  0  0  0  0
   -8.2174   -0.3482  -23.0811 O   0  0  0  0  0  0  0  0  0  0  0  0
   -7.2782   -0.5554  -23.2283 H   0  0  0  0  0  0  0  0  0  0  0  0
   -3.0351    2.5239  -20.5417 H   0  0  0  0  0  0  0  0  0  0  0  0
   -3.1633    3.8184  -19.3029 H   0  0  0  0  0  0  0  0  0  0  0  0
   -3.3094    1.9168  -17.9874 H   0  0  0  0  0  0  0  0  0  0  0  0
   -4.2737    0.3464  -20.9173 H   0  0  0  0  0  0  0  0  0  0  0  0
 19 21  1  0  0  0  0
 19 20  1  0  0  0  0
 19 22  1  0  0  0  0
 19 23  1  0  0  0  0
 18 19  1  0  0  0  0
 23 24  1  0  0  0  0
 17 18  2  0  0  0  0
 16 18  1  0  0  0  0
 12 13  1  0  0  0  0
 14 16  1  0  0  0  0
  5 15  1  0  0  0  0
 10 12  1  0  0  0  0
 12 14  1  0  0  0  0
 11 12  1  0  0  0  0
  7 14  1  0  0  0  0
  9 14  1  0  0  0  0
  5  7  2  3  0  0  0
  5  8  1  0  0  0  0
  6  8  1  0  0  0  0
  2  6  1  0  0  0  0
  2  3  1  0  0  0  0
  1  2  1  0  0  0  0
  2  4  1  0  0  0  0
  6 25  1  0  0  0  0
  6 26  1  0  0  0  0
  8 27  1  0  0  0  0
  7 28  1  0  0  0  0
M  CHG  1   7   1
M  END
> <Chemgauss4>
-6.650443

$$$$
