MODEL 1
REMARK VINA RESULT:    -6.951      0.000      0.000
REMARK INTER + INTRA:         -10.921
REMARK INTER:                  -9.999
REMARK INTRA:                  -0.921
REMARK UNBOUND:                -0.921
REMARK  8 active torsions:
REMARK  status: ('A' for Active; 'I' for Inactive)
REMARK    1  A    between atoms: S1_1  and  C3_3 
REMARK    2  A    between atoms: S1_1  and  N21_20 
REMARK    3  A    between atoms: N8_8  and  C11_11 
REMARK    4  A    between atoms: C10_10  and  N16_16 
REMARK    5  A    between atoms: C11_11  and  C12_12 
REMARK    6  A    between atoms: C12_12  and  O13_13 
REMARK    7  A    between atoms: O13_13  and  C14_14 
REMARK    8  A    between atoms: N16_16  and  C17_17 
ROOT
HETATM    1  S2  BZU A 555      -4.679   1.265  15.123  1.00  7.58    -0.063 SA
HETATM    2  C3  BZU A 555      -5.879   1.935  16.145  1.00  6.84     0.117 A 
HETATM    3  C4  BZU A 555      -6.194   3.209  15.797  1.00  8.77     0.043 A 
HETATM    4  C5  BZU A 555      -5.504   3.688  14.718  1.00 13.41     0.005 A 
HETATM    5  C6  BZU A 555      -4.636   2.727  14.227  1.00 13.59     0.125 A 
HETATM    6  S7  BZU A 555      -3.682   2.948  12.809  1.00 21.74     0.251 S 
HETATM    7  N8  BZU A 555      -4.468   4.031  12.147  1.00 20.32    -0.202 NA
HETATM    8  C9  BZU A 555      -4.434   5.237  12.945  1.00 22.21     0.145 C 
HETATM    9  C10 BZU A 555      -5.553   5.045  13.990  1.00 19.82     0.234 C 
HETATM   10  O3B BZU A 555      -2.362   3.290  13.202  1.00 20.55    -0.205 OA
HETATM   11  O4B BZU A 555      -3.601   1.728  12.062  1.00 19.59    -0.205 OA
ENDROOT
BRANCH   2  12
HETATM   12  S1  BZU A 555      -6.532   1.011  17.420  1.00  6.53     0.245 S 
HETATM   13  O1A BZU A 555      -6.355   1.813  18.578  1.00  6.71    -0.206 OA
HETATM   14  O2A BZU A 555      -7.918   0.835  17.097  1.00  2.00    -0.206 OA
BRANCH  12  15
HETATM   15  N21 BZU A 555      -5.844  -0.292  17.571  1.00  2.77    -0.225 NA
HETATM   16 1H21 BZU A 555      -5.283  -0.279  18.399  1.00 20.00     0.136 HD
HETATM   17 2H21 BZU A 555      -5.260  -0.456  16.776  1.00 20.00     0.136 HD
ENDBRANCH  12  15
ENDBRANCH   2  12
BRANCH   9  18
HETATM   18  N16 BZU A 555      -5.437   6.147  14.950  1.00 20.39    -0.066 N 
HETATM   19 1H16 BZU A 555      -6.008   6.892  14.601  1.00 20.00     0.278 HD
HETATM   20 2H16 BZU A 555      -5.814   5.816  15.814  1.00 20.00     0.278 HD
BRANCH  18  21
HETATM   21  C17 BZU A 555      -4.131   6.726  15.255  1.00 20.26     0.228 C 
HETATM   22  C18 BZU A 555      -4.172   7.701  16.445  1.00 20.00     0.034 C 
ENDBRANCH  18  21
ENDBRANCH   9  18
BRANCH   7  23
HETATM   23  C11 BZU A 555      -4.274   4.319  10.748  1.00 27.56     0.134 C 
BRANCH  23  24
HETATM   24  C12 BZU A 555      -3.400   5.562  10.746  1.00 32.43     0.183 C 
BRANCH  24  25
HETATM   25  O13 BZU A 555      -2.062   5.272  10.375  1.00 35.55    -0.390 OA
BRANCH  25  26
HETATM   26  C14 BZU A 555      -1.948   4.078   9.610  1.00 36.07     0.163 C 
HETATM   27  C15 BZU A 555      -0.736   3.251  10.085  1.00 37.64     0.033 C 
ENDBRANCH  25  26
ENDBRANCH  24  25
ENDBRANCH  23  24
ENDBRANCH   7  23
TORSDOF 8
ENDMDL
MODEL 2
REMARK VINA RESULT:    -6.370      2.603      6.683
REMARK INTER + INTRA:         -10.084
REMARK INTER:                  -9.503
REMARK INTRA:                  -0.582
REMARK UNBOUND:                -0.921
REMARK  8 active torsions:
REMARK  status: ('A' for Active; 'I' for Inactive)
REMARK    1  A    between atoms: S1_1  and  C3_3 
REMARK    2  A    between atoms: S1_1  and  N21_20 
REMARK    3  A    between atoms: N8_8  and  C11_11 
REMARK    4  A    between atoms: C10_10  and  N16_16 
REMARK    5  A    between atoms: C11_11  and  C12_12 
REMARK    6  A    between atoms: C12_12  and  O13_13 
REMARK    7  A    between atoms: O13_13  and  C14_14 
REMARK    8  A    between atoms: N16_16  and  C17_17 
ROOT
HETATM    1  S2  BZU A 555      -1.461   3.606  11.230  1.00  7.58    -0.063 SA
HETATM    2  C3  BZU A 555      -0.847   5.066  11.881  1.00  6.84     0.117 A 
HETATM    3  C4  BZU A 555      -1.548   5.475  12.970  1.00  8.77     0.043 A 
HETATM    4  C5  BZU A 555      -2.581   4.651  13.320  1.00 13.41     0.005 A 
HETATM    5  C6  BZU A 555      -2.655   3.567  12.461  1.00 13.59     0.125 A 
HETATM    6  S7  BZU A 555      -3.772   2.270  12.666  1.00 21.74     0.251 S 
HETATM    7  N8  BZU A 555      -4.072   2.427  14.119  1.00 20.32    -0.202 NA
HETATM    8  C9  BZU A 555      -4.743   3.685  14.361  1.00 22.21     0.145 C 
HETATM    9  C10 BZU A 555      -3.604   4.721  14.470  1.00 19.82     0.234 C 
HETATM   10  O3B BZU A 555      -4.862   2.471  11.780  1.00 20.55    -0.205 OA
HETATM   11  O4B BZU A 555      -3.162   1.021  12.313  1.00 19.59    -0.205 OA
ENDROOT
BRANCH   2  12
HETATM   12  S1  BZU A 555       0.497   5.827  11.161  1.00  6.53     0.245 S 
HETATM   13  O1A BZU A 555       1.561   4.897  11.304  1.00  6.71    -0.206 OA
HETATM   14  O2A BZU A 555       0.138   6.024   9.787  1.00  2.00    -0.206 OA
BRANCH  12  15
HETATM   15  N21 BZU A 555       0.828   7.112  11.821  1.00  2.77    -0.225 NA
HETATM   16 1H21 BZU A 555       1.732   7.417  11.522  1.00 20.00     0.136 HD
HETATM   17 2H21 BZU A 555       0.830   6.986  12.813  1.00 20.00     0.136 HD
ENDBRANCH  12  15
ENDBRANCH   2  12
BRANCH   9  18
HETATM   18  N16 BZU A 555      -4.231   6.045  14.519  1.00 20.39    -0.066 N 
HETATM   19 1H16 BZU A 555      -3.947   6.528  13.691  1.00 20.00     0.278 HD
HETATM   20 2H16 BZU A 555      -5.220   5.896  14.495  1.00 20.00     0.278 HD
BRANCH  18  21
HETATM   21  C17 BZU A 555      -3.971   6.945  15.641  1.00 20.26     0.228 C 
HETATM   22  C18 BZU A 555      -2.899   8.002  15.324  1.00 20.00     0.034 C 
ENDBRANCH  18  21
ENDBRANCH   9  18
BRANCH   7  23
HETATM   23  C11 BZU A 555      -4.688   1.352  14.855  1.00 27.56     0.134 C 
BRANCH  23  24
HETATM   24  C12 BZU A 555      -4.485   1.737  16.310  1.00 32.43     0.183 C 
BRANCH  24  25
HETATM   25  O13 BZU A 555      -4.907   0.712  17.196  1.00 35.55    -0.390 OA
BRANCH  25  26
HETATM   26  C14 BZU A 555      -5.990   1.111  18.026  1.00 36.07     0.163 C 
HETATM   27  C15 BZU A 555      -7.327   0.954  17.277  1.00 37.64     0.033 C 
ENDBRANCH  25  26
ENDBRANCH  24  25
ENDBRANCH  23  24
ENDBRANCH   7  23
TORSDOF 8
ENDMDL
MODEL 3
REMARK VINA RESULT:    -6.254      2.986      6.786
REMARK INTER + INTRA:          -9.917
REMARK INTER:                  -9.331
REMARK INTRA:                  -0.586
REMARK UNBOUND:                -0.921
REMARK  8 active torsions:
REMARK  status: ('A' for Active; 'I' for Inactive)
REMARK    1  A    between atoms: S1_1  and  C3_3 
REMARK    2  A    between atoms: S1_1  and  N21_20 
REMARK    3  A    between atoms: N8_8  and  C11_11 
REMARK    4  A    between atoms: C10_10  and  N16_16 
REMARK    5  A    between atoms: C11_11  and  C12_12 
REMARK    6  A    between atoms: C12_12  and  O13_13 
REMARK    7  A    between atoms: O13_13  and  C14_14 
REMARK    8  A    between atoms: N16_16  and  C17_17 
ROOT
HETATM    1  S2  BZU A 555      -0.718   2.880  11.001  1.00  7.58    -0.063 SA
HETATM    2  C3  BZU A 555       0.219   4.226  11.494  1.00  6.84     0.117 A 
HETATM    3  C4  BZU A 555      -0.440   5.007  12.388  1.00  8.77     0.043 A 
HETATM    4  C5  BZU A 555      -1.694   4.566  12.710  1.00 13.41     0.005 A 
HETATM    5  C6  BZU A 555      -1.988   3.393  12.033  1.00 13.59     0.125 A 
HETATM    6  S7  BZU A 555      -3.441   2.499  12.275  1.00 21.74     0.251 S 
HETATM    7  N8  BZU A 555      -3.824   3.008  13.625  1.00 20.32    -0.202 NA
HETATM    8  C9  BZU A 555      -4.132   4.420  13.561  1.00 22.21     0.145 C 
HETATM    9  C10 BZU A 555      -2.762   5.123  13.670  1.00 19.82     0.234 C 
HETATM   10  O3B BZU A 555      -4.338   2.802  11.218  1.00 20.55    -0.205 OA
HETATM   11  O4B BZU A 555      -3.179   1.091  12.220  1.00 19.59    -0.205 OA
ENDROOT
BRANCH   2  12
HETATM   12  S1  BZU A 555       1.787   4.455  10.868  1.00  6.53     0.245 S 
HETATM   13  O1A BZU A 555       1.793   5.788  10.379  1.00  6.71    -0.206 OA
HETATM   14  O2A BZU A 555       2.674   4.289  11.982  1.00  2.00    -0.206 OA
BRANCH  12  15
HETATM   15  N21 BZU A 555       2.098   3.495   9.783  1.00  2.77    -0.225 NA
HETATM   16 1H21 BZU A 555       2.669   2.758  10.144  1.00 20.00     0.136 HD
HETATM   17 2H21 BZU A 555       2.587   3.967   9.050  1.00 20.00     0.136 HD
ENDBRANCH  12  15
ENDBRANCH   2  12
BRANCH   9  18
HETATM   18  N16 BZU A 555      -2.989   6.548  13.414  1.00 20.39    -0.066 N 
HETATM   19 1H16 BZU A 555      -2.185   6.883  12.922  1.00 20.00     0.278 HD
HETATM   20 2H16 BZU A 555      -3.792   6.609  12.821  1.00 20.00     0.278 HD
BRANCH  18  21
HETATM   21  C17 BZU A 555      -3.218   7.471  14.524  1.00 20.26     0.228 C 
HETATM   22  C18 BZU A 555      -1.915   8.073  15.080  1.00 20.00     0.034 C 
ENDBRANCH  18  21
ENDBRANCH   9  18
BRANCH   7  23
HETATM   23  C11 BZU A 555      -4.789   2.294  14.423  1.00 27.56     0.134 C 
BRANCH  23  24
HETATM   24  C12 BZU A 555      -5.525   3.389  15.177  1.00 32.43     0.183 C 
BRANCH  24  25
HETATM   25  O13 BZU A 555      -6.505   2.862  16.057  1.00 35.55    -0.390 OA
BRANCH  25  26
HETATM   26  C14 BZU A 555      -6.088   1.660  16.693  1.00 36.07     0.163 C 
HETATM   27  C15 BZU A 555      -7.284   0.975  17.382  1.00 37.64     0.033 C 
ENDBRANCH  25  26
ENDBRANCH  24  25
ENDBRANCH  23  24
ENDBRANCH   7  23
TORSDOF 8
ENDMDL
MODEL 4
REMARK VINA RESULT:    -5.807     15.308     18.053
REMARK INTER + INTRA:          -9.274
REMARK INTER:                  -8.691
REMARK INTRA:                  -0.583
REMARK UNBOUND:                -0.921
REMARK  8 active torsions:
REMARK  status: ('A' for Active; 'I' for Inactive)
REMARK    1  A    between atoms: S1_1  and  C3_3 
REMARK    2  A    between atoms: S1_1  and  N21_20 
REMARK    3  A    between atoms: N8_8  and  C11_11 
REMARK    4  A    between atoms: C10_10  and  N16_16 
REMARK    5  A    between atoms: C11_11  and  C12_12 
REMARK    6  A    between atoms: C12_12  and  O13_13 
REMARK    7  A    between atoms: O13_13  and  C14_14 
REMARK    8  A    between atoms: N16_16  and  C17_17 
ROOT
HETATM    1  S2  BZU A 555      10.055  -7.939   5.888  1.00  7.58    -0.063 SA
HETATM    2  C3  BZU A 555       9.020  -9.056   6.672  1.00  6.84     0.117 A 
HETATM    3  C4  BZU A 555       7.755  -8.580   6.797  1.00  8.77     0.043 A 
HETATM    4  C5  BZU A 555       7.567  -7.329   6.278  1.00 13.41     0.005 A 
HETATM    5  C6  BZU A 555       8.743  -6.846   5.730  1.00 13.59     0.125 A 
HETATM    6  S7  BZU A 555       8.851  -5.342   4.894  1.00 21.74     0.251 S 
HETATM    7  N8  BZU A 555       7.416  -5.159   4.526  1.00 20.32    -0.202 NA
HETATM    8  C9  BZU A 555       6.609  -4.993   5.716  1.00 22.21     0.145 C 
HETATM    9  C10 BZU A 555       6.317  -6.432   6.192  1.00 19.82     0.234 C 
HETATM   10  O3B BZU A 555       9.395  -4.374   5.777  1.00 20.55    -0.205 OA
HETATM   11  O4B BZU A 555       9.744  -5.450   3.778  1.00 19.59    -0.205 OA
ENDROOT
BRANCH   2  12
HETATM   12  S1  BZU A 555       9.623 -10.565   7.189  1.00  6.53     0.245 S 
HETATM   13  O1A BZU A 555       8.481 -11.405   7.265  1.00  6.71    -0.206 OA
HETATM   14  O2A BZU A 555      10.532 -10.988   6.165  1.00  2.00    -0.206 OA
BRANCH  12  15
HETATM   15  N21 BZU A 555      10.297 -10.472   8.505  1.00  2.77    -0.225 NA
HETATM   16 1H21 BZU A 555       9.636 -10.187   9.199  1.00 20.00     0.136 HD
HETATM   17 2H21 BZU A 555      11.037  -9.802   8.454  1.00 20.00     0.136 HD
ENDBRANCH  12  15
ENDBRANCH   2  12
BRANCH   9  18
HETATM   18  N16 BZU A 555       5.669  -6.327   7.503  1.00 20.39    -0.066 N 
HETATM   19 1H16 BZU A 555       6.053  -7.055   8.072  1.00 20.00     0.278 HD
HETATM   20 2H16 BZU A 555       5.927  -5.438   7.880  1.00 20.00     0.278 HD
BRANCH  18  21
HETATM   21  C17 BZU A 555       4.216  -6.426   7.618  1.00 20.26     0.228 C 
HETATM   22  C18 BZU A 555       3.522  -5.053   7.631  1.00 20.00     0.034 C 
ENDBRANCH  18  21
ENDBRANCH   9  18
BRANCH   7  23
HETATM   23  C11 BZU A 555       7.043  -4.216   3.502  1.00 27.56     0.134 C 
BRANCH  23  24
HETATM   24  C12 BZU A 555       5.551  -4.019   3.709  1.00 32.43     0.183 C 
BRANCH  24  25
HETATM   25  O13 BZU A 555       5.164  -2.664   3.536  1.00 35.55    -0.390 OA
BRANCH  25  26
HETATM   26  C14 BZU A 555       4.323  -2.193   4.581  1.00 36.07     0.163 C 
HETATM   27  C15 BZU A 555       5.160  -1.488   5.666  1.00 37.64     0.033 C 
ENDBRANCH  25  26
ENDBRANCH  24  25
ENDBRANCH  23  24
ENDBRANCH   7  23
TORSDOF 8
ENDMDL
MODEL 5
REMARK VINA RESULT:    -5.470     15.319     18.621
REMARK INTER + INTRA:          -8.790
REMARK INTER:                  -8.188
REMARK INTRA:                  -0.603
REMARK UNBOUND:                -0.921
REMARK  8 active torsions:
REMARK  status: ('A' for Active; 'I' for Inactive)
REMARK    1  A    between atoms: S1_1  and  C3_3 
REMARK    2  A    between atoms: S1_1  and  N21_20 
REMARK    3  A    between atoms: N8_8  and  C11_11 
REMARK    4  A    between atoms: C10_10  and  N16_16 
REMARK    5  A    between atoms: C11_11  and  C12_12 
REMARK    6  A    between atoms: C12_12  and  O13_13 
REMARK    7  A    between atoms: O13_13  and  C14_14 
REMARK    8  A    between atoms: N16_16  and  C17_17 
ROOT
HETATM    1  S2  BZU A 555       7.883  -8.448   7.123  1.00  7.58    -0.063 SA
HETATM    2  C3  BZU A 555       9.421  -8.663   6.399  1.00  6.84     0.117 A 
HETATM    3  C4  BZU A 555       9.646  -7.768   5.403  1.00  8.77     0.043 A 
HETATM    4  C5  BZU A 555       8.619  -6.891   5.187  1.00 13.41     0.005 A 
HETATM    5  C6  BZU A 555       7.577  -7.132   6.067  1.00 13.59     0.125 A 
HETATM    6  S7  BZU A 555       6.162  -6.151   6.150  1.00 21.74     0.251 S 
HETATM    7  N8  BZU A 555       6.689  -4.901   5.529  1.00 20.32    -0.202 NA
HETATM    8  C9  BZU A 555       7.033  -5.135   4.143  1.00 22.21     0.145 C 
HETATM    9  C10 BZU A 555       8.458  -5.728   4.190  1.00 19.82     0.234 C 
HETATM   10  O3B BZU A 555       5.119  -6.805   5.445  1.00 20.55    -0.205 OA
HETATM   11  O4B BZU A 555       5.731  -6.006   7.510  1.00 19.59    -0.205 OA
ENDROOT
BRANCH   2  12
HETATM   12  S1  BZU A 555      10.464  -9.892   6.952  1.00  6.53     0.245 S 
HETATM   13  O1A BZU A 555      10.138 -11.028   6.164  1.00  6.71    -0.206 OA
HETATM   14  O2A BZU A 555      11.791  -9.419   6.686  1.00  2.00    -0.206 OA
BRANCH  12  15
HETATM   15  N21 BZU A 555      10.272 -10.177   8.393  1.00  2.77    -0.225 NA
HETATM   16 1H21 BZU A 555      10.815 -10.977   8.649  1.00 20.00     0.136 HD
HETATM   17 2H21 BZU A 555       9.305 -10.359   8.571  1.00 20.00     0.136 HD
ENDBRANCH  12  15
ENDBRANCH   2  12
BRANCH   9  18
HETATM   18  N16 BZU A 555       8.784  -6.167   2.830  1.00 20.39    -0.066 N 
HETATM   19 1H16 BZU A 555       9.061  -7.126   2.897  1.00 20.00     0.278 HD
HETATM   20 2H16 BZU A 555       7.941  -6.101   2.297  1.00 20.00     0.278 HD
BRANCH  18  21
HETATM   21  C17 BZU A 555       9.821  -5.483   2.062  1.00 20.26     0.228 C 
HETATM   22  C18 BZU A 555       9.249  -4.579   0.956  1.00 20.00     0.034 C 
ENDBRANCH  18  21
ENDBRANCH   9  18
BRANCH   7  23
HETATM   23  C11 BZU A 555       5.984  -3.655   5.693  1.00 27.56     0.134 C 
BRANCH  23  24
HETATM   24  C12 BZU A 555       5.109  -3.560   4.455  1.00 32.43     0.183 C 
BRANCH  24  25
HETATM   25  O13 BZU A 555       5.040  -2.234   3.953  1.00 35.55    -0.390 OA
BRANCH  25  26
HETATM   26  C14 BZU A 555       5.281  -1.252   4.952  1.00 36.07     0.163 C 
HETATM   27  C15 BZU A 555       3.972  -0.526   5.317  1.00 37.64     0.033 C 
ENDBRANCH  25  26
ENDBRANCH  24  25
ENDBRANCH  23  24
ENDBRANCH   7  23
TORSDOF 8
ENDMDL
MODEL 6
REMARK VINA RESULT:    -5.452     14.991     17.289
REMARK INTER + INTRA:          -8.763
REMARK INTER:                  -8.111
REMARK INTRA:                  -0.653
REMARK UNBOUND:                -0.921
REMARK  8 active torsions:
REMARK  status: ('A' for Active; 'I' for Inactive)
REMARK    1  A    between atoms: S1_1  and  C3_3 
REMARK    2  A    between atoms: S1_1  and  N21_20 
REMARK    3  A    between atoms: N8_8  and  C11_11 
REMARK    4  A    between atoms: C10_10  and  N16_16 
REMARK    5  A    between atoms: C11_11  and  C12_12 
REMARK    6  A    between atoms: C12_12  and  O13_13 
REMARK    7  A    between atoms: O13_13  and  C14_14 
REMARK    8  A    between atoms: N16_16  and  C17_17 
ROOT
HETATM    1  S2  BZU A 555       7.602  -7.444   6.198  1.00  7.58    -0.063 SA
HETATM    2  C3  BZU A 555       5.975  -7.980   6.204  1.00  6.84     0.117 A 
HETATM    3  C4  BZU A 555       5.124  -7.034   5.730  1.00  8.77     0.043 A 
HETATM    4  C5  BZU A 555       5.729  -5.868   5.350  1.00 13.41     0.005 A 
HETATM    5  C6  BZU A 555       7.099  -5.944   5.537  1.00 13.59     0.125 A 
HETATM    6  S7  BZU A 555       8.190  -4.695   5.067  1.00 21.74     0.251 S 
HETATM    7  N8  BZU A 555       7.348  -3.998   4.051  1.00 20.32    -0.202 NA
HETATM    8  C9  BZU A 555       6.184  -3.412   4.679  1.00 22.21     0.145 C 
HETATM    9  C10 BZU A 555       5.160  -4.564   4.757  1.00 19.82     0.234 C 
HETATM   10  O3B BZU A 555       8.530  -3.938   6.218  1.00 20.55    -0.205 OA
HETATM   11  O4B BZU A 555       9.405  -5.256   4.553  1.00 19.59    -0.205 OA
ENDROOT
BRANCH   2  12
HETATM   12  S1  BZU A 555       5.590  -9.544   6.760  1.00  6.53     0.245 S 
HETATM   13  O1A BZU A 555       4.865  -9.334   7.962  1.00  6.71    -0.206 OA
HETATM   14  O2A BZU A 555       4.772 -10.126   5.736  1.00  2.00    -0.206 OA
BRANCH  12  15
HETATM   15  N21 BZU A 555       6.801 -10.359   7.010  1.00  2.77    -0.225 NA
HETATM   16 1H21 BZU A 555       7.275 -10.012   7.820  1.00 20.00     0.136 HD
HETATM   17 2H21 BZU A 555       7.410 -10.305   6.219  1.00 20.00     0.136 HD
ENDBRANCH  12  15
ENDBRANCH   2  12
BRANCH   9  18
HETATM   18  N16 BZU A 555       4.033  -4.083   5.561  1.00 20.39    -0.066 N 
HETATM   19 1H16 BZU A 555       3.725  -3.229   5.141  1.00 20.00     0.278 HD
HETATM   20 2H16 BZU A 555       3.312  -4.770   5.485  1.00 20.00     0.278 HD
BRANCH  18  21
HETATM   21  C17 BZU A 555       4.206  -3.812   6.987  1.00 20.26     0.228 C 
HETATM   22  C18 BZU A 555       3.275  -4.658   7.874  1.00 20.00     0.034 C 
ENDBRANCH  18  21
ENDBRANCH   9  18
BRANCH   7  23
HETATM   23  C11 BZU A 555       7.950  -3.092   3.107  1.00 27.56     0.134 C 
BRANCH  23  24
HETATM   24  C12 BZU A 555       7.560  -3.658   1.752  1.00 32.43     0.183 C 
BRANCH  24  25
HETATM   25  O13 BZU A 555       8.494  -3.312   0.741  1.00 35.55    -0.390 OA
BRANCH  25  26
HETATM   26  C14 BZU A 555       9.415  -4.358   0.460  1.00 36.07     0.163 C 
HETATM   27  C15 BZU A 555       9.439  -4.659  -1.051  1.00 37.64     0.033 C 
ENDBRANCH  25  26
ENDBRANCH  24  25
ENDBRANCH  23  24
ENDBRANCH   7  23
TORSDOF 8
ENDMDL
MODEL 7
REMARK VINA RESULT:    -5.205     14.540     16.134
REMARK INTER + INTRA:          -8.409
REMARK INTER:                  -7.809
REMARK INTRA:                  -0.600
REMARK UNBOUND:                -0.921
REMARK  8 active torsions:
REMARK  status: ('A' for Active; 'I' for Inactive)
REMARK    1  A    between atoms: S1_1  and  C3_3 
REMARK    2  A    between atoms: S1_1  and  N21_20 
REMARK    3  A    between atoms: N8_8  and  C11_11 
REMARK    4  A    between atoms: C10_10  and  N16_16 
REMARK    5  A    between atoms: C11_11  and  C12_12 
REMARK    6  A    between atoms: C12_12  and  O13_13 
REMARK    7  A    between atoms: O13_13  and  C14_14 
REMARK    8  A    between atoms: N16_16  and  C17_17 
ROOT
HETATM    1  S2  BZU A 555       4.597  -3.983   6.733  1.00  7.58    -0.063 SA
HETATM    2  C3  BZU A 555       5.459  -5.422   6.387  1.00  6.84     0.117 A 
HETATM    3  C4  BZU A 555       6.342  -5.256   5.369  1.00  8.77     0.043 A 
HETATM    4  C5  BZU A 555       6.364  -3.996   4.838  1.00 13.41     0.005 A 
HETATM    5  C6  BZU A 555       5.463  -3.174   5.495  1.00 13.59     0.125 A 
HETATM    6  S7  BZU A 555       5.298  -1.491   5.159  1.00 21.74     0.251 S 
HETATM    7  N8  BZU A 555       6.626  -1.232   4.529  1.00 20.32    -0.202 NA
HETATM    8  C9  BZU A 555       6.744  -1.963   3.286  1.00 22.21     0.145 C 
HETATM    9  C10 BZU A 555       7.203  -3.375   3.705  1.00 19.82     0.234 C 
HETATM   10  O3B BZU A 555       4.167  -1.307   4.324  1.00 20.55    -0.205 OA
HETATM   11  O4B BZU A 555       5.058  -0.759   6.368  1.00 19.59    -0.205 OA
ENDROOT
BRANCH   2  12
HETATM   12  S1  BZU A 555       5.161  -6.838   7.287  1.00  6.53     0.245 S 
HETATM   13  O1A BZU A 555       3.920  -6.601   7.937  1.00  6.71    -0.206 OA
HETATM   14  O2A BZU A 555       5.067  -7.895   6.323  1.00  2.00    -0.206 OA
BRANCH  12  15
HETATM   15  N21 BZU A 555       6.231  -7.104   8.277  1.00  2.77    -0.225 NA
HETATM   16 1H21 BZU A 555       7.123  -6.950   7.852  1.00 20.00     0.136 HD
HETATM   17 2H21 BZU A 555       6.170  -8.052   8.589  1.00 20.00     0.136 HD
ENDBRANCH  12  15
ENDBRANCH   2  12
BRANCH   9  18
HETATM   18  N16 BZU A 555       7.150  -4.217   2.507  1.00 20.39    -0.066 N 
HETATM   19 1H16 BZU A 555       6.504  -4.955   2.703  1.00 20.00     0.278 HD
HETATM   20 2H16 BZU A 555       6.790  -3.646   1.770  1.00 20.00     0.278 HD
BRANCH  18  21
HETATM   21  C17 BZU A 555       8.364  -4.848   1.993  1.00 20.26     0.228 C 
HETATM   22  C18 BZU A 555       8.945  -4.118   0.769  1.00 20.00     0.034 C 
ENDBRANCH  18  21
ENDBRANCH   9  18
BRANCH   7  23
HETATM   23  C11 BZU A 555       7.117   0.116   4.396  1.00 27.56     0.134 C 
BRANCH  23  24
HETATM   24  C12 BZU A 555       8.422   0.112   5.173  1.00 32.43     0.183 C 
BRANCH  24  25
HETATM   25  O13 BZU A 555       8.929   1.423   5.370  1.00 35.55    -0.390 OA
BRANCH  25  26
HETATM   26  C14 BZU A 555       8.012   2.434   4.972  1.00 36.07     0.163 C 
HETATM   27  C15 BZU A 555       8.166   3.679   5.868  1.00 37.64     0.033 C 
ENDBRANCH  25  26
ENDBRANCH  24  25
ENDBRANCH  23  24
ENDBRANCH   7  23
TORSDOF 8
ENDMDL
MODEL 8
REMARK VINA RESULT:    -5.162     15.202     16.899
REMARK INTER + INTRA:          -8.347
REMARK INTER:                  -7.327
REMARK INTRA:                  -1.020
REMARK UNBOUND:                -0.921
REMARK  8 active torsions:
REMARK  status: ('A' for Active; 'I' for Inactive)
REMARK    1  A    between atoms: S1_1  and  C3_3 
REMARK    2  A    between atoms: S1_1  and  N21_20 
REMARK    3  A    between atoms: N8_8  and  C11_11 
REMARK    4  A    between atoms: C10_10  and  N16_16 
REMARK    5  A    between atoms: C11_11  and  C12_12 
REMARK    6  A    between atoms: C12_12  and  O13_13 
REMARK    7  A    between atoms: O13_13  and  C14_14 
REMARK    8  A    between atoms: N16_16  and  C17_17 
ROOT
HETATM    1  S2  BZU A 555       5.321  -3.637   6.787  1.00  7.58    -0.063 SA
HETATM    2  C3  BZU A 555       5.747  -5.227   6.314  1.00  6.84     0.117 A 
HETATM    3  C4  BZU A 555       6.572  -5.236   5.236  1.00  8.77     0.043 A 
HETATM    4  C5  BZU A 555       6.892  -3.995   4.758  1.00 13.41     0.005 A 
HETATM    5  C6  BZU A 555       6.286  -3.008   5.517  1.00 13.59     0.125 A 
HETATM    6  S7  BZU A 555       6.552  -1.324   5.266  1.00 21.74     0.251 S 
HETATM    7  N8  BZU A 555       7.856  -1.382   4.542  1.00 20.32    -0.202 NA
HETATM    8  C9  BZU A 555       7.692  -2.041   3.265  1.00 22.21     0.145 C 
HETATM    9  C10 BZU A 555       7.788  -3.548   3.588  1.00 19.82     0.234 C 
HETATM   10  O3B BZU A 555       5.456  -0.800   4.531  1.00 20.55    -0.205 OA
HETATM   11  O4B BZU A 555       6.595  -0.629   6.519  1.00 19.59    -0.205 OA
ENDROOT
BRANCH   2  12
HETATM   12  S1  BZU A 555       5.144  -6.568   7.176  1.00  6.53     0.245 S 
HETATM   13  O1A BZU A 555       3.897  -6.134   7.699  1.00  6.71    -0.206 OA
HETATM   14  O2A BZU A 555       4.984  -7.610   6.205  1.00  2.00    -0.206 OA
BRANCH  12  15
HETATM   15  N21 BZU A 555       6.056  -6.983   8.267  1.00  2.77    -0.225 NA
HETATM   16 1H21 BZU A 555       6.981  -7.097   7.903  1.00 20.00     0.136 HD
HETATM   17 2H21 BZU A 555       5.742  -7.851   8.654  1.00 20.00     0.136 HD
ENDBRANCH  12  15
ENDBRANCH   2  12
BRANCH   9  18
HETATM   18  N16 BZU A 555       7.435  -4.272   2.363  1.00 20.39    -0.066 N 
HETATM   19 1H16 BZU A 555       6.815  -5.009   2.635  1.00 20.00     0.278 HD
HETATM   20 2H16 BZU A 555       6.947  -3.626   1.778  1.00 20.00     0.278 HD
BRANCH  18  21
HETATM   21  C17 BZU A 555       8.476  -4.882   1.539  1.00 20.26     0.228 C 
HETATM   22  C18 BZU A 555       9.732  -5.259   2.343  1.00 20.00     0.034 C 
ENDBRANCH  18  21
ENDBRANCH   9  18
BRANCH   7  23
HETATM   23  C11 BZU A 555       8.676  -0.203   4.426  1.00 27.56     0.134 C 
BRANCH  23  24
HETATM   24  C12 BZU A 555      10.051  -0.745   4.075  1.00 32.43     0.183 C 
BRANCH  24  25
HETATM   25  O13 BZU A 555      10.752  -1.201   5.221  1.00 35.55    -0.390 OA
BRANCH  25  26
HETATM   26  C14 BZU A 555      11.224  -2.536   5.085  1.00 36.07     0.163 C 
HETATM   27  C15 BZU A 555      10.438  -3.480   6.015  1.00 37.64     0.033 C 
ENDBRANCH  25  26
ENDBRANCH  24  25
ENDBRANCH  23  24
ENDBRANCH   7  23
TORSDOF 8
ENDMDL
MODEL 9
REMARK VINA RESULT:    -5.063     17.033     19.177
REMARK INTER + INTRA:          -8.205
REMARK INTER:                  -7.227
REMARK INTRA:                  -0.978
REMARK UNBOUND:                -0.921
REMARK  8 active torsions:
REMARK  status: ('A' for Active; 'I' for Inactive)
REMARK    1  A    between atoms: S1_1  and  C3_3 
REMARK    2  A    between atoms: S1_1  and  N21_20 
REMARK    3  A    between atoms: N8_8  and  C11_11 
REMARK    4  A    between atoms: C10_10  and  N16_16 
REMARK    5  A    between atoms: C11_11  and  C12_12 
REMARK    6  A    between atoms: C12_12  and  O13_13 
REMARK    7  A    between atoms: O13_13  and  C14_14 
REMARK    8  A    between atoms: N16_16  and  C17_17 
ROOT
HETATM    1  S2  BZU A 555       6.770 -11.963   6.326  1.00  7.58    -0.063 SA
HETATM    2  C3  BZU A 555       5.199 -11.281   6.296  1.00  6.84     0.117 A 
HETATM    3  C4  BZU A 555       5.228  -9.928   6.399  1.00  8.77     0.043 A 
HETATM    4  C5  BZU A 555       6.483  -9.394   6.501  1.00 13.41     0.005 A 
HETATM    5  C6  BZU A 555       7.443 -10.392   6.463  1.00 13.59     0.125 A 
HETATM    6  S7  BZU A 555       9.137 -10.077   6.462  1.00 21.74     0.251 S 
HETATM    7  N8  BZU A 555       9.128  -8.668   5.971  1.00 20.32    -0.202 NA
HETATM    8  C9  BZU A 555       8.477  -7.805   6.933  1.00 22.21     0.145 C 
HETATM    9  C10 BZU A 555       6.971  -7.938   6.620  1.00 19.82     0.234 C 
HETATM   10  O3B BZU A 555       9.633 -10.275   7.777  1.00 20.55    -0.205 OA
HETATM   11  O4B BZU A 555       9.820 -11.003   5.607  1.00 19.59    -0.205 OA
ENDROOT
BRANCH   2  12
HETATM   12  S1  BZU A 555       3.830 -12.286   6.147  1.00  6.53     0.245 S 
HETATM   13  O1A BZU A 555       4.328 -13.605   6.317  1.00  6.71    -0.206 OA
HETATM   14  O2A BZU A 555       2.954 -11.903   7.215  1.00  2.00    -0.206 OA
BRANCH  12  15
HETATM   15  N21 BZU A 555       3.172 -12.137   4.829  1.00  2.77    -0.225 NA
HETATM   16 1H21 BZU A 555       2.543 -12.901   4.681  1.00 20.00     0.136 HD
HETATM   17 2H21 BZU A 555       3.865 -12.133   4.108  1.00 20.00     0.136 HD
ENDBRANCH  12  15
ENDBRANCH   2  12
BRANCH   9  18
HETATM   18  N16 BZU A 555       6.248  -7.240   7.687  1.00 20.39    -0.066 N 
HETATM   19 1H16 BZU A 555       5.910  -7.943   8.312  1.00 20.00     0.278 HD
HETATM   20 2H16 BZU A 555       6.917  -6.667   8.160  1.00 20.00     0.278 HD
BRANCH  18  21
HETATM   21  C17 BZU A 555       5.111  -6.379   7.368  1.00 20.26     0.228 C 
HETATM   22  C18 BZU A 555       5.130  -5.876   5.914  1.00 20.00     0.034 C 
ENDBRANCH  18  21
ENDBRANCH   9  18
BRANCH   7  23
HETATM   23  C11 BZU A 555      10.334  -8.069   5.458  1.00 27.56     0.134 C 
BRANCH  23  24
HETATM   24  C12 BZU A 555       9.973  -7.676   4.035  1.00 32.43     0.183 C 
BRANCH  24  25
HETATM   25  O13 BZU A 555       9.990  -6.269   3.852  1.00 35.55    -0.390 OA
BRANCH  25  26
HETATM   26  C14 BZU A 555       8.692  -5.691   3.892  1.00 36.07     0.163 C 
HETATM   27  C15 BZU A 555       8.605  -4.646   5.022  1.00 37.64     0.033 C 
ENDBRANCH  25  26
ENDBRANCH  24  25
ENDBRANCH  23  24
ENDBRANCH   7  23
TORSDOF 8
ENDMDL
