stable:False satoms:14 tatoms:24 sratio:0.5833333333333334
  -OEChem-07092417323D

 24 25  0     0  0  0  0  0  0999 V2000
    7.3346   -2.7108   23.1399 H   0  0  0  0  0  0  0  0  0  0  0  0
   10.6213   -2.3760   25.8116 H   0  0  0  0  0  0  0  0  0  0  0  0
   10.7664   -1.9411   24.8422 C   0  0  0  0  0  0  0  0  0  0  0  0
   11.3511   -1.1140   21.2839 H   0  0  0  0  0  0  0  0  0  0  0  0
    5.0930   -1.8287   23.4681 H   0  0  0  0  0  0  0  0  0  0  0  0
    7.7638   -1.2709   21.6133 C   0  0  0  0  0  0  0  0  0  0  0  0
   11.9875   -1.4386   24.4254 C   0  0  0  0  0  0  0  0  0  0  0  0
    5.7107   -1.4216   22.7017 C   0  0  0  0  0  0  0  0  0  0  0  0
   12.7824   -1.3284   25.1263 H   0  0  0  0  0  0  0  0  0  0  0  0
    9.0987   -1.1399   21.6460 N   0  0  0  0  0  0  0  0  0  0  0  0
   12.1754   -1.0010   23.1539 C   0  0  0  0  0  0  0  0  0  0  0  0
    6.0357   -0.0368   20.8173 C   0  0  0  0  0  0  0  0  0  0  0  0
    5.6237    0.8927   19.9732 F   0  0  0  0  0  0  0  0  0  0  0  0
    9.7131   -1.7566   23.9777 C   0  0  0  0  0  0  0  0  0  0  0  0
    8.7312   -1.8504   24.3536 H   0  0  0  0  0  0  0  0  0  0  0  0
   13.0538   -0.5341   22.7740 H   0  0  0  0  0  0  0  0  0  0  0  0
   11.1741   -1.1239   22.2607 N   0  3  0  0  0  0  0  0  0  0  0  0
    6.9809   -1.8879   22.5335 C   0  0  0  0  0  0  0  0  0  0  0  0
    9.9218   -1.3722   22.6517 C   0  0  0  0  0  0  0  0  0  0  0  0
    7.2170   -0.5281   20.5446 N   0  3  0  0  0  0  0  0  0  0  0  0
    7.6430   -0.2894   19.6660 H   0  0  0  0  0  0  0  0  0  0  0  0
    9.3702   -0.7034   20.7814 H   0  0  0  0  0  0  0  0  0  0  0  0
    5.2091   -0.4703   21.8234 C   0  0  0  0  0  0  0  0  0  0  0  0
    4.2251   -0.0588   21.9273 H   0  0  0  0  0  0  0  0  0  0  0  0
 20 21  1  0  0  0  0
 12 13  1  0  0  0  0
 12 20  2  0  0  0  0
  6 20  1  0  0  0  0
 10 22  1  0  0  0  0
 12 23  1  0  0  0  0
  4 17  1  0  0  0  0
  6 10  1  0  0  0  0
  6 18  2  0  0  0  0
 10 19  1  0  0  0  0
 23 24  1  0  0  0  0
  8 23  2  0  0  0  0
 17 19  2  0  0  0  0
 11 17  1  0  0  0  0
  8 18  1  0  0  0  0
  1 18  1  0  0  0  0
 14 19  1  0  0  0  0
  5  8  1  0  0  0  0
 11 16  1  0  0  0  0
  7 11  2  0  0  0  0
 14 15  1  0  0  0  0
  3 14  2  0  0  0  0
  3  7  1  0  0  0  0
  7  9  1  0  0  0  0
  2  3  1  0  0  0  0
M  CHG  2  17   1  20   1
M  END
> <Shapegauss>
-121.693253

$$$$
