stable:False satoms:14 tatoms:24 sratio:0.5833333333333334
  -OEChem-08052419283D

 22 23  0     0  0  0  0  0  0999 V2000
   -9.5512    0.5238  -22.9903 H   0  0  0  0  0  0  0  0  0  0  0  0
   -5.7465   -1.2088  -23.7485 H   0  0  0  0  0  0  0  0  0  0  0  0
   -6.5180   -1.8946  -23.4580 C   0  0  0  0  0  0  0  0  0  0  0  0
  -10.9206    1.7788  -24.5588 H   0  0  0  0  0  0  0  0  0  0  0  0
  -10.8936   -1.1448  -23.0304 C   0  0  0  0  0  0  0  0  0  0  0  0
   -6.2680   -3.2310  -23.1959 C   0  0  0  0  0  0  0  0  0  0  0  0
  -11.2540    0.8275  -24.2148 C   0  0  0  0  0  0  0  0  0  0  0  0
   -5.3169   -3.6488  -23.4331 H   0  0  0  0  0  0  0  0  0  0  0  0
  -10.1235   -2.1983  -22.7184 N   0  0  0  0  0  0  0  0  0  0  0  0
   -7.2381   -4.0513  -22.7168 C   0  0  0  0  0  0  0  0  0  0  0  0
  -12.9041   -0.8519  -24.0378 C   0  0  0  0  0  0  0  0  0  0  0  0
  -14.0734   -1.3716  -24.3677 F   0  0  0  0  0  0  0  0  0  0  0  0
   -7.8385   -1.5122  -23.4274 C   0  0  0  0  0  0  0  0  0  0  0  0
   -8.1106   -0.6047  -23.8929 H   0  0  0  0  0  0  0  0  0  0  0  0
   -7.1517   -5.1010  -22.5599 H   0  0  0  0  0  0  0  0  0  0  0  0
   -8.4489   -3.5378  -22.4239 N   0  0  0  0  0  0  0  0  0  0  0  0
  -10.4759    0.1027  -23.3613 C   0  0  0  0  0  0  0  0  0  0  0  0
   -8.8192   -2.3351  -22.8701 C   0  0  0  0  0  0  0  0  0  0  0  0
  -12.2475   -1.5312  -23.1331 N   0  0  0  0  0  0  0  0  0  0  0  0
  -10.7435   -2.9435  -22.4499 H   0  0  0  0  0  0  0  0  0  0  0  0
  -12.5086    0.3499  -24.5697 C   0  0  0  0  0  0  0  0  0  0  0  0
  -13.1473    0.8731  -25.2527 H   0  0  0  0  0  0  0  0  0  0  0  0
 11 12  1  0  0  0  0
 11 19  2  0  0  0  0
  5 19  1  0  0  0  0
  9 20  1  0  0  0  0
 11 21  1  0  0  0  0
  5  9  1  0  0  0  0
  5 17  2  0  0  0  0
  9 18  1  0  0  0  0
 21 22  1  0  0  0  0
  7 21  2  0  0  0  0
 16 18  2  0  0  0  0
 10 16  1  0  0  0  0
  7 17  1  0  0  0  0
  1 17  1  0  0  0  0
 13 18  1  0  0  0  0
  4  7  1  0  0  0  0
 10 15  1  0  0  0  0
  6 10  2  0  0  0  0
 13 14  1  0  0  0  0
  3 13  2  0  0  0  0
  3  6  1  0  0  0  0
  6  8  1  0  0  0  0
  2  3  1  0  0  0  0
M  END
> <Chemgauss4>
-6.994569

$$$$
