stable:False satoms:14 tatoms:24 sratio:0.5833333333333334
  -OEChem-08052419293D

 22 23  0     0  0  0  0  0  0999 V2000
    9.8072    0.4844   22.8160 H   0  0  0  0  0  0  0  0  0  0  0  0
    6.0025   -1.2482   23.5743 H   0  0  0  0  0  0  0  0  0  0  0  0
    6.7740   -1.9340   23.2838 C   0  0  0  0  0  0  0  0  0  0  0  0
   11.1766    1.7394   24.3846 H   0  0  0  0  0  0  0  0  0  0  0  0
   11.1496   -1.1843   22.8561 C   0  0  0  0  0  0  0  0  0  0  0  0
    6.5240   -3.2704   23.0217 C   0  0  0  0  0  0  0  0  0  0  0  0
   11.5100    0.7880   24.0405 C   0  0  0  0  0  0  0  0  0  0  0  0
    5.5729   -3.6882   23.2588 H   0  0  0  0  0  0  0  0  0  0  0  0
   10.3795   -2.2377   22.5442 N   0  0  0  0  0  0  0  0  0  0  0  0
    7.4941   -4.0907   22.5426 C   0  0  0  0  0  0  0  0  0  0  0  0
   13.1601   -0.8913   23.8635 C   0  0  0  0  0  0  0  0  0  0  0  0
   14.3294   -1.4110   24.1935 F   0  0  0  0  0  0  0  0  0  0  0  0
    8.0945   -1.5516   23.2531 C   0  0  0  0  0  0  0  0  0  0  0  0
    8.3665   -0.6442   23.7187 H   0  0  0  0  0  0  0  0  0  0  0  0
    7.4077   -5.1404   22.3856 H   0  0  0  0  0  0  0  0  0  0  0  0
    8.7049   -3.5773   22.2496 N   0  0  0  0  0  0  0  0  0  0  0  0
   10.7318    0.0633   23.1871 C   0  0  0  0  0  0  0  0  0  0  0  0
    9.0752   -2.3745   22.6958 C   0  0  0  0  0  0  0  0  0  0  0  0
   12.5035   -1.5707   22.9589 N   0  0  0  0  0  0  0  0  0  0  0  0
   10.9995   -2.9829   22.2756 H   0  0  0  0  0  0  0  0  0  0  0  0
   12.7646    0.3104   24.3954 C   0  0  0  0  0  0  0  0  0  0  0  0
   13.4033    0.8337   25.0785 H   0  0  0  0  0  0  0  0  0  0  0  0
 11 12  1  0  0  0  0
 11 19  2  0  0  0  0
  5 19  1  0  0  0  0
  9 20  1  0  0  0  0
 11 21  1  0  0  0  0
  5  9  1  0  0  0  0
  5 17  2  0  0  0  0
  9 18  1  0  0  0  0
 21 22  1  0  0  0  0
  7 21  2  0  0  0  0
 16 18  2  0  0  0  0
 10 16  1  0  0  0  0
  7 17  1  0  0  0  0
  1 17  1  0  0  0  0
 13 18  1  0  0  0  0
  4  7  1  0  0  0  0
 10 15  1  0  0  0  0
  6 10  2  0  0  0  0
 13 14  1  0  0  0  0
  3 13  2  0  0  0  0
  3  6  1  0  0  0  0
  6  8  1  0  0  0  0
  2  3  1  0  0  0  0
M  END
> <Chemgauss4>
-6.967011

$$$$
