stable:False satoms:11 tatoms:24 sratio:0.4583333333333333
  -OEChem-08062414433D

 42 43  0     1  0  0  0  0  0999 V2000
   -6.7201   -5.3175  -26.3106 C   0  0  0  0  0  0  0  0  0  0  0  0
   -8.3946   -4.6557  -26.0741 S   0  0  0  0  0  0  0  0  0  0  0  0
   -9.2686   -5.7874  -25.9719 O   0  0  0  0  0  0  0  0  0  0  0  0
   -8.6690   -3.8081  -27.1966 O   0  0  0  0  0  0  0  0  0  0  0  0
   -8.2922   -3.8706  -24.6861 N   0  0  0  0  0  0  0  0  0  0  0  0
   -9.0945   -3.1483  -24.2187 C   0  0  0  0  0  0  0  0  0  0  0  0
   -9.5774   -2.1799  -23.6622 C   0  0  0  0  0  0  0  0  0  0  0  0
  -10.5059   -1.2568  -23.4725 C   0  0  1  0  0  0  0  0  0  0  0  0
  -11.0268   -0.1995  -24.5581 C   0  0  0  0  0  0  0  0  0  0  0  0
  -12.1199    0.1989  -24.6300 C   0  0  0  0  0  0  0  0  0  0  0  0
  -13.2226   -0.1741  -23.9344 C   0  0  0  0  0  0  0  0  0  0  0  0
  -12.8900   -1.2408  -23.0365 C   0  0  0  0  0  0  0  0  0  0  0  0
  -11.9342   -1.6888  -22.8685 C   0  0  0  0  0  0  0  0  0  0  0  0
   -9.8497   -0.6976  -22.5750 C   0  0  0  0  0  0  0  0  0  0  0  0
   -9.2171   -0.0689  -21.5945 C   0  0  0  0  0  0  0  0  0  0  0  0
   -9.7249    0.8909  -21.1967 O   0  0  0  0  0  0  0  0  0  0  0  0
   -8.0860   -0.7174  -21.2566 N   0  0  0  0  0  0  0  0  0  0  0  0
   -7.4231   -0.1952  -20.3001 C   0  0  0  0  0  0  0  0  0  0  0  0
   -7.5019    0.0161  -19.0173 C   0  0  0  0  0  0  0  0  0  0  0  0
   -7.1165    0.3505  -17.8635 N   0  0  0  0  0  0  0  0  0  0  0  0
   -5.9053    0.7311  -18.3412 C   0  0  0  0  0  0  0  0  0  0  0  0
   -5.4529    0.7529  -19.4573 C   0  0  0  0  0  0  0  0  0  0  0  0
   -5.9847    0.3684  -20.6185 C   0  0  0  0  0  0  0  0  0  0  0  0
   -5.3752    0.4261  -22.0143 Cl  0  0  0  0  0  0  0  0  0  0  0  0
   -6.6790   -5.8846  -27.2522 H   0  0  0  0  0  0  0  0  0  0  0  0
   -6.0001   -4.4868  -26.3513 H   0  0  0  0  0  0  0  0  0  0  0  0
   -6.4666   -5.9817  -25.4712 H   0  0  0  0  0  0  0  0  0  0  0  0
   -7.4627   -3.3176  -24.7640 H   0  0  0  0  0  0  0  0  0  0  0  0
   -9.9911   -3.7201  -24.4072 H   0  0  0  0  0  0  0  0  0  0  0  0
   -8.8430   -1.9437  -22.9064 H   0  0  0  0  0  0  0  0  0  0  0  0
  -10.3115    0.1718  -25.2770 H   0  0  0  0  0  0  0  0  0  0  0  0
  -12.2778    0.9807  -25.3583 H   0  0  0  0  0  0  0  0  0  0  0  0
  -14.2032    0.2659  -24.0409 H   0  0  0  0  0  0  0  0  0  0  0  0
  -13.7080   -1.6423  -22.4568 H   0  0  0  0  0  0  0  0  0  0  0  0
  -11.7972   -1.6462  -21.7779 H   0  0  0  0  0  0  0  0  0  0  0  0
  -12.0611   -2.7357  -23.1814 H   0  0  0  0  0  0  0  0  0  0  0  0
   -9.1624   -0.2683  -23.3189 H   0  0  0  0  0  0  0  0  0  0  0  0
   -9.4589   -1.6666  -22.2310 H   0  0  0  0  0  0  0  0  0  0  0  0
   -7.7869   -1.5499  -21.7230 H   0  0  0  0  0  0  0  0  0  0  0  0
   -8.5242   -0.2714  -18.8207 H   0  0  0  0  0  0  0  0  0  0  0  0
   -5.2209    1.0781  -17.5812 H   0  0  0  0  0  0  0  0  0  0  0  0
   -4.4510    1.1496  -19.5298 H   0  0  0  0  0  0  0  0  0  0  0  0
 20 21  2  0  0  0  0
 19 20  1  0  0  0  0
 21 22  1  0  0  0  0
 18 19  2  0  0  0  0
 22 23  2  0  0  0  0
 18 23  1  0  0  0  0
 17 18  1  0  0  0  0
 23 24  1  0  0  0  0
 15 16  2  0  0  0  0
 15 17  1  0  0  0  0
 14 15  1  0  0  0  0
  8 14  1  0  0  0  0
 12 13  1  0  0  0  0
  8 13  1  0  0  0  0
 11 12  2  0  0  0  0
  7  8  1  0  0  0  0
  8  9  1  0  0  0  0
 10 11  1  0  0  0  0
  6  7  2  3  0  0  0
  5  6  1  0  0  0  0
  9 10  2  0  0  0  0
  2  5  1  0  0  0  0
  2  3  2  0  0  0  0
  1  2  1  0  0  0  0
  2  4  2  0  0  0  0
  1 25  1  0  0  0  0
  1 26  1  0  0  0  0
  1 27  1  0  0  0  0
  5 28  1  0  0  0  0
  6 29  1  0  0  0  0
  7 30  1  0  0  0  0
  9 31  1  0  0  0  0
 10 32  1  0  0  0  0
 11 33  1  0  0  0  0
 12 34  1  0  0  0  0
 13 35  1  0  0  0  0
 13 36  1  0  0  0  0
 14 37  1  0  0  0  0
 14 38  1  0  0  0  0
 17 39  1  0  0  0  0
 19 40  1  0  0  0  0
 21 41  1  0  0  0  0
 22 42  1  0  0  0  0
M  END
> <Chemgauss4>
-13.083698

$$$$
