stable:False satoms:11 tatoms:24 sratio:0.4583333333333333
  -OEChem-08062414443D

 42 43  0     1  0  0  0  0  0999 V2000
    6.3719   -5.2117   26.1136 C   0  0  0  0  0  0  0  0  0  0  0  0
    8.0501   -4.5320   25.9742 S   0  0  0  0  0  0  0  0  0  0  0  0
    8.9430   -5.6532   25.9580 O   0  0  0  0  0  0  0  0  0  0  0  0
    8.2375   -3.6550   27.0921 O   0  0  0  0  0  0  0  0  0  0  0  0
    8.0317   -3.7805   24.5641 N   0  0  0  0  0  0  0  0  0  0  0  0
    8.8546   -3.0579   24.1345 C   0  0  0  0  0  0  0  0  0  0  0  0
    9.3616   -2.0959   23.5887 C   0  0  0  0  0  0  0  0  0  0  0  0
   10.2892   -1.1643   23.4398 C   0  0  1  0  0  0  0  0  0  0  0  0
   10.7224   -0.0751   24.5323 C   0  0  0  0  0  0  0  0  0  0  0  0
   11.8031    0.3402   24.6679 C   0  0  0  0  0  0  0  0  0  0  0  0
   12.9548   -0.0331   24.0569 C   0  0  0  0  0  0  0  0  0  0  0  0
   12.6969   -1.1248   23.1645 C   0  0  0  0  0  0  0  0  0  0  0  0
   11.7603   -1.5899   22.9434 C   0  0  0  0  0  0  0  0  0  0  0  0
    9.6880   -0.6353   22.4871 C   0  0  0  0  0  0  0  0  0  0  0  0
    9.1152   -0.0382   21.4517 C   0  0  0  0  0  0  0  0  0  0  0  0
    9.6365    0.9193   21.0660 O   0  0  0  0  0  0  0  0  0  0  0  0
    8.0176   -0.7103   21.0542 N   0  0  0  0  0  0  0  0  0  0  0  0
    7.4142   -0.2196   20.0431 C   0  0  0  0  0  0  0  0  0  0  0  0
    7.5766   -0.0368   18.7638 C   0  0  0  0  0  0  0  0  0  0  0  0
    7.2658    0.2656   17.5792 N   0  0  0  0  0  0  0  0  0  0  0  0
    6.0205    0.6399   17.9652 C   0  0  0  0  0  0  0  0  0  0  0  0
    5.4936    0.6810   19.0477 C   0  0  0  0  0  0  0  0  0  0  0  0
    5.9507    0.3308   20.2508 C   0  0  0  0  0  0  0  0  0  0  0  0
    5.2478    0.4120   21.6007 Cl  0  0  0  0  0  0  0  0  0  0  0  0
    6.2745   -5.7576   27.0636 H   0  0  0  0  0  0  0  0  0  0  0  0
    5.6404   -4.3906   26.0860 H   0  0  0  0  0  0  0  0  0  0  0  0
    6.1839   -5.8986   25.2752 H   0  0  0  0  0  0  0  0  0  0  0  0
    7.1919   -3.2377   24.5730 H   0  0  0  0  0  0  0  0  0  0  0  0
    9.7435   -3.6125   24.3964 H   0  0  0  0  0  0  0  0  0  0  0  0
    8.6770   -1.8875   22.7799 H   0  0  0  0  0  0  0  0  0  0  0  0
    9.9557    0.3025   25.1925 H   0  0  0  0  0  0  0  0  0  0  0  0
   11.9018    1.1407   25.3862 H   0  0  0  0  0  0  0  0  0  0  0  0
   13.9204    0.4230   24.2184 H   0  0  0  0  0  0  0  0  0  0  0  0
   13.5571   -1.5279   22.6507 H   0  0  0  0  0  0  0  0  0  0  0  0
   11.6965   -1.5743   21.8454 H   0  0  0  0  0  0  0  0  0  0  0  0
   11.8789   -2.6275   23.2891 H   0  0  0  0  0  0  0  0  0  0  0  0
    8.9469   -0.1987   23.1728 H   0  0  0  0  0  0  0  0  0  0  0  0
    9.3335   -1.6174   22.1410 H   0  0  0  0  0  0  0  0  0  0  0  0
    7.6982   -1.5359   21.5192 H   0  0  0  0  0  0  0  0  0  0  0  0
    8.6134   -0.3143   18.6433 H   0  0  0  0  0  0  0  0  0  0  0  0
    5.3846    0.9597   17.1530 H   0  0  0  0  0  0  0  0  0  0  0  0
    4.4842    1.0650   19.0433 H   0  0  0  0  0  0  0  0  0  0  0  0
 20 21  2  0  0  0  0
 19 20  1  0  0  0  0
 21 22  1  0  0  0  0
 18 19  2  0  0  0  0
 22 23  2  0  0  0  0
 18 23  1  0  0  0  0
 17 18  1  0  0  0  0
 23 24  1  0  0  0  0
 15 16  2  0  0  0  0
 15 17  1  0  0  0  0
 14 15  1  0  0  0  0
  8 14  1  0  0  0  0
 12 13  1  0  0  0  0
  8 13  1  0  0  0  0
 11 12  2  0  0  0  0
  7  8  1  0  0  0  0
  8  9  1  0  0  0  0
 10 11  1  0  0  0  0
  6  7  2  3  0  0  0
  5  6  1  0  0  0  0
  9 10  2  0  0  0  0
  2  5  1  0  0  0  0
  2  3  2  0  0  0  0
  1  2  1  0  0  0  0
  2  4  2  0  0  0  0
  1 25  1  0  0  0  0
  1 26  1  0  0  0  0
  1 27  1  0  0  0  0
  5 28  1  0  0  0  0
  6 29  1  0  0  0  0
  7 30  1  0  0  0  0
  9 31  1  0  0  0  0
 10 32  1  0  0  0  0
 11 33  1  0  0  0  0
 12 34  1  0  0  0  0
 13 35  1  0  0  0  0
 13 36  1  0  0  0  0
 14 37  1  0  0  0  0
 14 38  1  0  0  0  0
 17 39  1  0  0  0  0
 19 40  1  0  0  0  0
 21 41  1  0  0  0  0
 22 42  1  0  0  0  0
M  END
> <Chemgauss4>
-12.803502

$$$$
