stable:False satoms:20 tatoms:24 sratio:0.8333333333333334
  -OEChem-08052417443D

 26 26  0     1  0  0  0  0  0999 V2000
  -12.7262    0.8338  -24.9465 H   0  0  0  0  0  0  0  0  0  0  0  0
   -6.2243   -7.0009  -22.0930 N   0  3  0  0  0  0  0  0  0  0  0  0
   -6.4744   -3.7149  -24.7956 S   0  0  0  0  0  0  0  0  0  0  0  0
   -7.6385   -2.7435  -25.5435 C   0  0  0  0  0  0  0  0  0  0  0  0
   -9.3000   -0.2318  -25.3884 H   0  0  0  0  0  0  0  0  0  0  0  0
  -11.8416   -1.9486  -22.6822 C   0  0  0  0  0  0  0  0  0  0  0  0
  -13.4986   -0.6097  -23.7210 N   0  0  0  0  0  0  0  0  0  0  0  0
   -7.1801   -3.9058  -23.2322 C   0  0  0  0  0  2  0  0  0  0  0  0
  -12.5110   -0.0687  -24.3865 C   0  0  0  0  0  0  0  0  0  0  0  0
  -11.5184   -2.5833  -21.8729 H   0  0  0  0  0  0  0  0  0  0  0  0
   -5.3965   -7.5483  -21.9703 H   0  0  0  0  0  0  0  0  0  0  0  0
   -9.0019   -1.0492  -25.8121 O   0  0  0  0  0  0  0  0  0  0  0  0
   -9.3385   -2.4370  -22.9093 H   0  0  0  0  0  0  0  0  0  0  0  0
   -9.5790   -1.9697  -23.7647 N   0  0  0  0  0  0  0  0  0  0  0  0
  -11.2614   -0.5661  -24.5161 N   0  0  0  0  0  0  0  0  0  0  0  0
  -10.9232   -1.4992  -23.6598 C   0  0  0  0  0  0  0  0  0  0  0  0
   -5.1972   -5.3128  -22.8189 H   0  0  0  0  0  0  0  0  0  0  0  0
  -13.9877   -1.9145  -22.2385 H   0  0  0  0  0  0  0  0  0  0  0  0
   -6.1382   -5.7748  -22.5561 C   0  0  0  0  0  0  0  0  0  0  0  0
   -8.7733   -1.9284  -24.8862 C   0  0  3  0  0  0  0  0  0  0  0  0
   -7.2684   -5.0613  -22.7143 N   0  0  0  0  0  0  0  0  0  0  0  0
   -7.5512   -2.6997  -26.7434 O   0  0  0  0  0  0  0  0  0  0  0  0
  -13.1616   -1.5279  -22.8244 C   0  0  0  0  0  0  0  0  0  0  0  0
   -8.0506   -1.2674  -24.3853 H   0  0  0  0  0  0  0  0  0  0  0  0
   -8.1533   -5.4313  -22.4315 H   0  0  0  0  0  0  0  0  0  0  0  0
   -7.1177   -7.3869  -21.8630 H   0  0  0  0  0  0  0  0  0  0  0  0
 18 23  1  0  0  0  0
  7 23  2  0  0  0  0
  6 23  1  0  0  0  0
  7  9  1  0  0  0  0
  6 10  1  0  0  0  0
  6 16  2  0  0  0  0
  1  9  1  0  0  0  0
  9 15  2  0  0  0  0
 15 16  1  0  0  0  0
 14 16  1  0  0  0  0
 13 14  1  0  0  0  0
 14 20  1  0  0  0  0
  5 12  1  0  0  0  0
 12 20  1  0  0  0  0
  4 20  1  0  0  0  0
  8 21  1  0  0  0  0
  3  8  1  0  0  0  0
 19 21  1  0  0  0  0
  2 19  2  3  0  0  0
 17 19  1  0  0  0  0
  2 11  1  0  0  0  0
  3  4  1  0  0  0  0
  4 22  2  0  0  0  0
 20 24  1  0  0  0  0
 21 25  1  0  0  0  0
  2 26  1  0  0  0  0
M  CHG  1   2   1
M  END
> <Chemgauss4>
-5.166304

$$$$
