stable:False satoms:20 tatoms:24 sratio:0.8333333333333334
  -OEChem-08052417443D

 26 26  0     1  0  0  0  0  0999 V2000
    5.8592   -6.3479   25.7379 H   0  0  0  0  0  0  0  0  0  0  0  0
   10.3464    2.6069   22.3505 N   0  3  0  0  0  0  0  0  0  0  0  0
    6.9569    0.1211   21.6458 S   0  0  0  0  0  0  0  0  0  0  0  0
    6.4608   -1.4797   21.8680 C   0  0  0  0  0  0  0  0  0  0  0  0
    5.1068   -3.4676   23.6866 H   0  0  0  0  0  0  0  0  0  0  0  0
    8.4188   -3.7048   26.0751 C   0  0  0  0  0  0  0  0  0  0  0  0
    7.7568   -5.9582   26.3934 N   0  0  0  0  0  0  0  0  0  0  0  0
    7.8417    0.3823   23.1045 C   0  0  0  0  0  2  0  0  0  0  0  0
    6.6769   -5.6368   25.7288 C   0  0  0  0  0  0  0  0  0  0  0  0
    9.0233   -2.8557   26.3505 H   0  0  0  0  0  0  0  0  0  0  0  0
   10.4714    3.4995   21.9173 H   0  0  0  0  0  0  0  0  0  0  0  0
    5.5609   -3.2065   22.8730 O   0  0  0  0  0  0  0  0  0  0  0  0
    7.6461   -1.6342   24.7824 H   0  0  0  0  0  0  0  0  0  0  0  0
    7.1353   -2.3918   24.3662 N   0  0  0  0  0  0  0  0  0  0  0  0
    6.5035   -4.5399   24.9592 N   0  0  0  0  0  0  0  0  0  0  0  0
    7.3681   -3.5709   25.1374 C   0  0  0  0  0  0  0  0  0  0  0  0
    8.2535    2.6075   22.1238 H   0  0  0  0  0  0  0  0  0  0  0  0
    9.4741   -5.2470   27.2206 H   0  0  0  0  0  0  0  0  0  0  0  0
    9.1411    2.0998   22.4739 C   0  0  0  0  0  0  0  0  0  0  0  0
    6.4469   -2.3073   23.1714 C   0  0  3  0  0  0  0  0  0  0  0  0
    9.0018    0.8953   23.0579 N   0  0  0  0  0  0  0  0  0  0  0  0
    6.0749   -2.0229   20.8652 O   0  0  0  0  0  0  0  0  0  0  0  0
    8.6196   -4.9742   26.6118 C   0  0  0  0  0  0  0  0  0  0  0  0
    5.6849   -1.6509   23.6168 H   0  0  0  0  0  0  0  0  0  0  0  0
    9.7906    0.4176   23.4447 H   0  0  0  0  0  0  0  0  0  0  0  0
   11.1391    2.1004   22.6896 H   0  0  0  0  0  0  0  0  0  0  0  0
 18 23  1  0  0  0  0
  7 23  2  0  0  0  0
  6 23  1  0  0  0  0
  7  9  1  0  0  0  0
  6 10  1  0  0  0  0
  6 16  2  0  0  0  0
  1  9  1  0  0  0  0
  9 15  2  0  0  0  0
 15 16  1  0  0  0  0
 14 16  1  0  0  0  0
 13 14  1  0  0  0  0
 14 20  1  0  0  0  0
  5 12  1  0  0  0  0
 12 20  1  0  0  0  0
  4 20  1  0  0  0  0
  8 21  1  0  0  0  0
  3  8  1  0  0  0  0
 19 21  1  0  0  0  0
  2 19  2  3  0  0  0
 17 19  1  0  0  0  0
  2 11  1  0  0  0  0
  3  4  1  0  0  0  0
  4 22  2  0  0  0  0
 20 24  1  0  0  0  0
 21 25  1  0  0  0  0
  2 26  1  0  0  0  0
M  CHG  1   2   1
M  END
> <Chemgauss4>
-5.429545

$$$$
