REMARK  5 active torsions:
REMARK  status: ('A' for Active; 'I' for Inactive)
REMARK    1  A    between atoms: S_2  and  N_5 
REMARK    2  A    between atoms: N_5  and  C_7 
REMARK    3  A    between atoms: C_8  and  C_9 
REMARK    4  A    between atoms: C_10  and  C_11 
REMARK       I    between atoms: C_11  and  N_13 
REMARK    5  A    between atoms: N_13  and  C_15 
ROOT
HETATM    1  C   UNL     2      11.359  -0.121  24.182  1.00  0.00     0.058 A 
HETATM    2  C   UNL     2      12.207   0.484  24.377  1.00  0.00     0.058 A 
HETATM    3  C   UNL     2      12.594  -0.296  23.618  1.00  0.00     0.172 A 
HETATM    4  O   UNL     2      13.102  -0.920  22.918  1.00  0.00    -0.289 OA
ENDROOT
TORSDOF 5
