stable:False satoms:11 tatoms:24 sratio:0.4583333333333333
  -OEChem-07092417423D

 24 25  0     1  0  0  0  0  0999 V2000
    6.6008   -5.0094   26.4980 Cl  0  0  0  0  0  0  0  0  0  0  0  0
    8.3064   -4.3460   26.1859 S   0  0  0  0  0  0  0  0  0  0  0  0
    9.1949   -5.4402   26.0480 O   0  0  0  0  0  0  0  0  0  0  0  0
    8.6370   -3.4730   27.2434 O   0  0  0  0  0  0  0  0  0  0  0  0
    8.0844   -3.6458   24.7346 N   0  0  0  0  0  0  0  0  0  0  0  0
    8.8498   -2.9308   24.1859 C   0  0  0  0  0  0  0  0  0  0  0  0
    9.4642   -2.1161   23.5561 C   0  0  0  0  0  0  0  0  0  0  0  0
   10.3396   -1.3954   22.9516 C   0  5  2  0  0  0  0  0  0  0  0  0
   11.3588   -0.1215   24.1822 C   0  0  0  0  0  0  0  0  0  0  0  0
   12.2072    0.4838   24.3769 C   0  0  0  0  0  0  0  0  0  0  0  0
   12.5942   -0.2964   23.6178 C   0  0  0  0  0  0  0  0  0  0  0  0
   13.1024   -0.9197   22.9184 O   0  0  0  0  0  0  0  0  0  0  0  0
   11.2471   -2.0073   22.6436 H   0  0  0  0  0  0  0  0  0  0  0  0
    9.9390   -0.4538   22.1931 C   0  0  0  0  0  0  0  0  0  0  0  0
    9.1664    0.1432   21.2629 C   0  0  0  0  0  0  0  0  0  0  0  0
    9.5406    1.0827   20.6184 O   0  0  0  0  0  0  0  0  0  0  0  0
    7.9639   -0.4968   21.1659 N   0  0  0  0  0  0  0  0  0  0  0  0
    7.1351    0.0076   20.2305 C   0  0  0  0  0  0  0  0  0  0  0  0
    7.1207    0.1671   18.9312 C   0  0  0  0  0  0  0  0  0  0  0  0
    6.7225    0.3883   17.7930 N   0  0  0  0  0  0  0  0  0  0  0  0
    5.7431    0.8444   18.3026 C   0  0  1  0  0  0  0  0  0  0  0  0
    4.8973    1.1158   19.4579 S   0  0  0  0  0  0  0  0  0  0  0  0
    5.8431    0.5388   20.5723 C   0  0  0  0  0  0  0  0  0  0  0  0
    5.5257    0.5906   21.6266 H   0  0  0  0  0  0  0  0  0  0  0  0
 20 21  1  0  0  0  0
 19 20  2  0  0  0  0
 19 21  1  0  0  0  0
 21 22  1  0  0  0  0
 18 19  1  0  0  0  0
 22 23  1  0  0  0  0
 18 23  2  0  0  0  0
 17 18  1  0  0  0  0
 23 24  1  0  0  0  0
 15 16  2  0  0  0  0
 15 17  1  0  0  0  0
 14 15  1  0  0  0  0
  8 14  1  0  0  0  0
  8 13  1  0  0  0  0
 11 12  2  0  0  0  0
  7  8  1  0  0  0  0
  6  7  3  0  0  0  0
  9 11  1  0  0  0  0
 10 11  1  0  0  0  0
  9 10  1  0  0  0  0
  5  6  1  0  0  0  0
  2  5  1  0  0  0  0
  2  3  2  0  0  0  0
  1  2  1  0  0  0  0
  2  4  2  0  0  0  0
M  CHG  1   8  -1
M  END
> <Shapegauss>
-276.005676

$$$$
