REMARK  5 active torsions:
REMARK  status: ('A' for Active; 'I' for Inactive)
REMARK       I    between atoms: N_1  and  C_19 
REMARK    1  A    between atoms: C_3  and  C_22 
REMARK    2  A    between atoms: C_3  and  N_6 
REMARK    3  A    between atoms: N_13  and  N_17 
REMARK    4  A    between atoms: N_15  and  C_22 
REMARK    5  A    between atoms: N_17  and  C_22 
REMARK       I    between atoms: C_19  and  N_23 
ROOT
HETATM    1  C   UNL     1       9.578  -1.465  22.716  1.00  0.00     0.161 C 
HETATM    2  N   UNL     1      10.418  -2.129  23.517  1.00  0.00    -0.377 N 
HETATM    3  H   UNL     1      10.975  -2.886  23.116  1.00  0.00     0.160 HD
HETATM    4  C   UNL     1      11.076  -1.426  24.598  1.00  0.00     0.148 C 
ENDROOT
BRANCH   1   5
HETATM    5  C   UNL     1       9.459  -1.811  21.262  1.00  0.00     0.159 C 
BRANCH   5   6
HETATM    6  N   UNL     1      10.294  -2.716  20.693  1.00  0.00    -0.381 N 
HETATM    7  H   UNL     1       9.859  -3.402  20.093  1.00  0.00     0.157 HD
HETATM    8  H   UNL     1      11.257  -2.818  20.922  1.00  0.00     0.157 HD
ENDBRANCH   5   6
BRANCH   5   9
HETATM    9  N   UNL     1       8.521  -1.254  20.575  1.00  0.00    -0.289 N 
ATOM     10  HN  UNL     1       7.831  -0.633  20.998  1.00  0.00     0.188 HD
BRANCH   9  11
HETATM   11  N   UNL     1       8.513  -1.544  19.275  1.00  0.00    -0.344 N 
HETATM   12  H   UNL     1       8.561  -2.519  18.978  1.00  0.00     0.176 HD
HETATM   13  H   UNL     1       7.927  -1.014  18.647  1.00  0.00     0.176 HD
ENDBRANCH   9  11
ENDBRANCH   5   9
ENDBRANCH   1   5
BRANCH   1  14
HETATM   14  N   UNL     1       8.871  -0.526  23.218  1.00  0.00    -0.268 N 
HETATM   15  N   UNL     1       7.845  -0.496  23.980  1.00  0.00    -0.131 N 
HETATM   16  C   UNL     1       6.697   0.031  23.680  1.00  0.00     0.684 C 
ATOM     17  HN  UNL     1       7.936  -0.922  24.902  1.00  0.00     0.205 HD
HETATM   18  N   UNL     1       6.704   1.342  23.601  1.00  0.00    -0.234 N 
HETATM   19  N   UNL     1       5.538  -0.684  23.615  1.00  0.00    -0.234 N 
HETATM   20  H   UNL     1       7.605   1.778  23.714  1.00  0.00     0.174 HD
HETATM   21  H   UNL     1       5.951   1.973  23.431  1.00  0.00     0.174 HD
HETATM   22  H   UNL     1       5.537  -1.688  23.638  1.00  0.00     0.174 HD
HETATM   23  H   UNL     1       4.654  -0.262  23.395  1.00  0.00     0.174 HD
ATOM     24  HN  UNL     1       9.197   0.403  22.952  1.00  0.00     0.189 HD
ENDBRANCH   1  14
TORSDOF 5
