stable:False satoms:8 tatoms:24 sratio:0.3333333333333333
  -OEChem-08062413083D

 38 38  0     0  0  0  0  0  0999 V2000
   -6.5253   -5.5142  -26.0168 C   0  0  0  0  0  0  0  0  0  0  0  0
   -8.1079   -4.9566  -25.9347 S   0  0  0  0  0  0  0  0  0  0  0  0
   -8.9738   -6.1251  -25.8939 O   0  0  0  0  0  0  0  0  0  0  0  0
   -8.4046   -4.1260  -27.0489 O   0  0  0  0  0  0  0  0  0  0  0  0
   -8.2027   -4.1750  -24.5200 N   0  0  0  0  0  0  0  0  0  0  0  0
   -9.0392   -3.4133  -24.1520 C   0  0  0  0  0  0  0  0  0  0  0  0
   -9.5384   -2.4359  -23.7143 C   0  0  0  0  0  0  0  0  0  0  0  0
  -10.2133   -1.3652  -23.6554 C   0  0  0  0  0  0  0  0  0  0  0  0
  -11.1083   -0.5511  -24.6243 C   0  0  0  0  0  0  0  0  0  0  0  0
  -12.1165   -0.2575  -24.7105 C   0  0  0  0  0  0  0  0  0  0  0  0
  -13.1848   -0.6638  -23.9671 C   0  0  0  0  0  0  0  0  0  0  0  0
  -12.8856   -1.5880  -23.0585 C   0  0  0  0  0  0  0  0  0  0  0  0
  -12.3409   -2.1627  -22.6017 C   0  0  0  0  0  0  0  0  0  0  0  0
   -9.9196   -0.9041  -22.6221 C   0  0  0  0  0  0  0  0  0  0  0  0
   -9.3380   -0.1980  -21.6451 C   0  0  0  0  0  0  0  0  0  0  0  0
   -9.8004    0.7922  -21.3880 O   0  0  0  0  0  0  0  0  0  0  0  0
   -8.2227   -0.7966  -21.2078 N   0  0  0  0  0  0  0  0  0  0  0  0
   -7.5395   -0.2339  -20.3020 C   0  0  0  0  0  0  0  0  0  0  0  0
   -7.6688    0.0089  -18.9908 C   0  0  0  0  0  0  0  0  0  0  0  0
   -7.3874    0.3938  -17.8894 N   0  0  0  0  0  0  0  0  0  0  0  0
   -6.1910    0.8701  -18.3475 C   0  0  0  0  0  0  0  0  0  0  0  0
   -5.7006    0.8591  -19.3930 C   0  0  0  0  0  0  0  0  0  0  0  0
   -6.1625    0.3911  -20.5721 C   0  0  0  0  0  0  0  0  0  0  0  0
   -5.5224    0.4697  -22.0156 Cl  0  0  0  0  0  0  0  0  0  0  0  0
   -6.3775   -6.0622  -26.9590 H   0  0  0  0  0  0  0  0  0  0  0  0
   -5.8332   -4.6601  -25.9771 H   0  0  0  0  0  0  0  0  0  0  0  0
   -6.3286   -6.1852  -25.1677 H   0  0  0  0  0  0  0  0  0  0  0  0
   -7.3485   -3.6585  -24.4603 H   0  0  0  0  0  0  0  0  0  0  0  0
  -10.5287   -0.1744  -25.4541 H   0  0  0  0  0  0  0  0  0  0  0  0
  -12.3320    0.4588  -25.4896 H   0  0  0  0  0  0  0  0  0  0  0  0
  -13.9431   -1.0788  -24.6473 H   0  0  0  0  0  0  0  0  0  0  0  0
  -13.5989    0.2126  -23.4471 H   0  0  0  0  0  0  0  0  0  0  0  0
  -11.7093   -2.8290  -22.0719 H   0  0  0  0  0  0  0  0  0  0  0  0
  -10.6427   -1.4287  -22.0151 H   0  0  0  0  0  0  0  0  0  0  0  0
   -7.9338   -1.6741  -21.5906 H   0  0  0  0  0  0  0  0  0  0  0  0
   -8.6499   -0.4046  -18.8100 H   0  0  0  0  0  0  0  0  0  0  0  0
   -5.5902    1.3472  -17.5874 H   0  0  0  0  0  0  0  0  0  0  0  0
   -4.7127    1.2935  -19.4342 H   0  0  0  0  0  0  0  0  0  0  0  0
 20 21  2  0  0  0  0
 19 20  1  0  0  0  0
 21 22  1  0  0  0  0
 18 19  2  0  0  0  0
 22 23  2  0  0  0  0
 18 23  1  0  0  0  0
 17 18  1  0  0  0  0
 23 24  1  0  0  0  0
 15 16  2  0  0  0  0
 15 17  1  0  0  0  0
 14 15  1  0  0  0  0
 12 13  3  0  0  0  0
  8 14  2  3  0  0  0
 11 12  1  0  0  0  0
 10 11  1  0  0  0  0
  7  8  1  0  0  0  0
  8  9  1  0  0  0  0
  6  7  3  0  0  0  0
  5  6  1  0  0  0  0
  9 10  2  0  0  0  0
  2  5  1  0  0  0  0
  2  3  2  0  0  0  0
  1  2  1  0  0  0  0
  2  4  2  0  0  0  0
  1 25  1  0  0  0  0
  1 26  1  0  0  0  0
  1 27  1  0  0  0  0
  5 28  1  0  0  0  0
  9 29  1  0  0  0  0
 10 30  1  0  0  0  0
 11 31  1  0  0  0  0
 11 32  1  0  0  0  0
 13 33  1  0  0  0  0
 14 34  1  0  0  0  0
 17 35  1  0  0  0  0
 19 36  1  0  0  0  0
 21 37  1  0  0  0  0
 22 38  1  0  0  0  0
M  END
> <Chemgauss4>
-12.155906

$$$$
