stable:False satoms:19 tatoms:24 sratio:0.7916666666666666
  -OEChem-07092417403D

 24 24  0     1  0  0  0  0  0999 V2000
    6.4858   -4.5307   26.2009 Cl  0  0  0  0  0  0  0  0  0  0  0  0
    8.3383   -4.0412   25.8632 S   0  0  0  0  0  0  0  0  0  0  0  0
    9.0253   -5.2608   25.6879 O   0  0  0  0  0  0  0  0  0  0  0  0
    8.7414   -3.2005   26.9344 O   0  0  0  0  0  0  0  0  0  0  0  0
    8.2685   -3.1985   24.4770 N   0  0  0  0  0  0  0  0  0  0  0  0
    9.1042   -2.6418   23.9240 C   0  0  0  0  0  0  0  0  0  0  0  0
    8.8070   -0.9900   22.6324 N   0  0  0  0  0  0  0  0  0  0  0  0
   11.1482   -1.6241   22.9956 C   0  5  3  0  0  0  0  0  0  0  0  0
   11.5644   -0.1344   24.6233 O   0  0  0  0  0  0  0  0  0  0  0  0
   12.1530    0.4838   25.0606 H   0  0  0  0  0  0  0  0  0  0  0  0
   13.2886   -0.5375   23.3022 O   0  0  0  0  0  0  0  0  0  0  0  0
   12.1432   -0.7708   23.5804 C   0  0  0  0  0  0  0  0  0  0  0  0
   11.5282   -2.3630   22.3366 H   0  0  0  0  0  0  0  0  0  0  0  0
    9.7501   -1.6218   23.1285 C   0  0  3  0  0  0  0  0  0  0  0  0
    8.7155   -0.0465   21.5570 C   0  0  0  0  0  0  0  0  0  0  0  0
    9.4906    0.8014   21.2920 O   0  0  0  0  0  0  0  0  0  0  0  0
    7.5467   -0.1186   20.7451 N   0  0  0  0  0  0  0  0  0  0  0  0
    7.7619   -0.0548   19.4902 C   0  0  0  0  0  0  0  0  0  0  0  0
    6.8007    0.3093   18.6887 C   0  0  0  0  0  0  0  0  0  0  0  0
    6.8522    0.4059   17.6258 H   0  0  0  0  0  0  0  0  0  0  0  0
    5.6749    0.5321   19.4906 C   0  0  0  0  0  0  0  0  0  0  0  0
    4.6902    0.8803   19.2068 H   0  0  0  0  0  0  0  0  0  0  0  0
    6.0980    0.2340   20.7547 C   0  0  0  0  0  0  0  0  0  0  0  0
    5.6073    0.1980   21.6988 H   0  0  0  0  0  0  0  0  0  0  0  0
 19 20  1  0  0  0  0
 18 19  2  0  0  0  0
 19 21  1  0  0  0  0
 21 22  1  0  0  0  0
 17 18  1  0  0  0  0
 21 23  2  0  0  0  0
 17 23  1  0  0  0  0
 15 17  1  0  0  0  0
 23 24  1  0  0  0  0
 15 16  2  0  0  0  0
  7 15  1  0  0  0  0
  8 13  1  0  0  0  0
  7 14  1  0  0  0  0
  8 14  1  0  0  0  0
  8 12  1  0  0  0  0
  6 14  1  0  0  0  0
 11 12  2  0  0  0  0
  9 12  1  0  0  0  0
  5  6  1  0  0  0  0
  2  5  1  0  0  0  0
  9 10  1  0  0  0  0
  2  3  2  0  0  0  0
  1  2  1  0  0  0  0
  2  4  2  0  0  0  0
M  CHG  1   8  -1
M  END
> <Shapegauss>
-221.906601

$$$$
