stable:False satoms:19 tatoms:24 sratio:0.7916666666666666
  -OEChem-08062404473D

 30 30  0     1  0  0  0  0  0999 V2000
   -6.6974   -4.9619  -25.8316 Cl  0  0  0  0  0  0  0  0  0  0  0  0
   -8.5162   -4.2825  -25.7070 S   0  0  0  0  0  0  0  0  0  0  0  0
   -9.3386   -5.4231  -25.5939 O   0  0  0  0  0  0  0  0  0  0  0  0
   -8.7128   -3.4310  -26.8263 O   0  0  0  0  0  0  0  0  0  0  0  0
   -8.5125   -3.4189  -24.3319 N   0  0  0  0  0  0  0  0  0  0  0  0
   -9.3425   -2.7690  -23.8816 C   0  0  0  0  0  0  0  0  0  0  0  0
   -9.0214   -1.1254  -22.5853 N   0  0  0  0  0  0  0  0  0  0  0  0
  -11.3614   -1.5313  -23.1975 C   0  0  3  0  0  0  0  0  0  0  0  0
  -11.4444   -0.0458  -24.8793 O   0  5  0  0  0  0  0  0  0  0  0  0
  -13.3341   -0.2442  -23.7523 O   0  0  0  0  0  0  0  0  0  0  0  0
  -12.1949   -0.5969  -23.8992 C   0  0  0  0  0  0  0  0  0  0  0  0
  -11.7213   -2.5142  -23.5358 H   0  0  0  0  0  0  0  0  0  0  0  0
   -9.9641   -1.6714  -23.1749 C   0  0  3  0  0  0  0  0  0  0  0  0
   -8.9521   -0.1709  -21.5179 C   0  0  0  0  0  0  0  0  0  0  0  0
   -9.6612    0.7560  -21.3506 O   0  0  0  0  0  0  0  0  0  0  0  0
   -7.8920   -0.3402  -20.5809 N   0  0  0  0  0  0  0  0  0  0  0  0
   -8.2349   -0.2260  -19.3583 C   0  0  0  0  0  0  0  0  0  0  0  0
   -7.3347    0.0590  -18.4599 C   0  0  0  0  0  0  0  0  0  0  0  0
   -7.4915    0.1850  -17.4105 H   0  0  0  0  0  0  0  0  0  0  0  0
   -6.1115    0.1498  -19.1350 C   0  0  0  0  0  0  0  0  0  0  0  0
   -5.1333    0.4046  -18.7482 H   0  0  0  0  0  0  0  0  0  0  0  0
   -6.4226   -0.1340  -20.4344 C   0  0  0  0  0  0  0  0  0  0  0  0
   -5.8382   -0.2407  -21.3179 H   0  0  0  0  0  0  0  0  0  0  0  0
   -7.7374   -2.7952  -24.4335 H   0  0  0  0  0  0  0  0  0  0  0  0
   -9.8025   -3.5681  -23.2817 H   0  0  0  0  0  0  0  0  0  0  0  0
   -9.9083   -2.6401  -24.8161 H   0  0  0  0  0  0  0  0  0  0  0  0
   -8.1240   -1.4087  -22.9234 H   0  0  0  0  0  0  0  0  0  0  0  0
  -11.6307   -1.3859  -22.1410 H   0  0  0  0  0  0  0  0  0  0  0  0
   -9.8518   -1.0074  -24.0447 H   0  0  0  0  0  0  0  0  0  0  0  0
   -9.2660   -0.3648  -19.0686 H   0  0  0  0  0  0  0  0  0  0  0  0
 18 19  1  0  0  0  0
 17 18  2  0  0  0  0
 18 20  1  0  0  0  0
 20 21  1  0  0  0  0
 16 17  1  0  0  0  0
 20 22  2  0  0  0  0
 16 22  1  0  0  0  0
 14 16  1  0  0  0  0
 22 23  1  0  0  0  0
 14 15  2  0  0  0  0
  7 14  1  0  0  0  0
  8 12  1  0  0  0  0
  7 13  1  0  0  0  0
  8 13  1  0  0  0  0
  8 11  1  0  0  0  0
  6 13  1  0  0  0  0
 10 11  2  0  0  0  0
  9 11  1  0  0  0  0
  5  6  1  0  0  0  0
  2  5  1  0  0  0  0
  2  3  2  0  0  0  0
  1  2  1  0  0  0  0
  2  4  2  0  0  0  0
  5 24  1  0  0  0  0
  6 25  1  0  0  0  0
  6 26  1  0  0  0  0
  7 27  1  0  0  0  0
  8 28  1  0  0  0  0
 13 29  1  0  0  0  0
 17 30  1  0  0  0  0
M  CHG  1   9  -1
M  END
> <Chemgauss4>
-5.994076

$$$$
