stable:False satoms:19 tatoms:24 sratio:0.7916666666666666
  -OEChem-08062404473D

 30 30  0     1  0  0  0  0  0999 V2000
    6.5493   -4.8543   25.8153 Cl  0  0  0  0  0  0  0  0  0  0  0  0
    8.3682   -4.1749   25.6906 S   0  0  0  0  0  0  0  0  0  0  0  0
    9.1905   -5.3156   25.5776 O   0  0  0  0  0  0  0  0  0  0  0  0
    8.5648   -3.3234   26.8100 O   0  0  0  0  0  0  0  0  0  0  0  0
    8.3644   -3.3113   24.3156 N   0  0  0  0  0  0  0  0  0  0  0  0
    9.1944   -2.6614   23.8653 C   0  0  0  0  0  0  0  0  0  0  0  0
    8.8733   -1.0178   22.5689 N   0  0  0  0  0  0  0  0  0  0  0  0
   11.2133   -1.4237   23.1812 C   0  0  3  0  0  0  0  0  0  0  0  0
   11.2963    0.0617   24.8630 O   0  5  0  0  0  0  0  0  0  0  0  0
   13.1861   -0.1367   23.7359 O   0  0  0  0  0  0  0  0  0  0  0  0
   12.0468   -0.4894   23.8828 C   0  0  0  0  0  0  0  0  0  0  0  0
   11.5732   -2.4066   23.5194 H   0  0  0  0  0  0  0  0  0  0  0  0
    9.8161   -1.5638   23.1586 C   0  0  3  0  0  0  0  0  0  0  0  0
    8.8040   -0.0633   21.5016 C   0  0  0  0  0  0  0  0  0  0  0  0
    9.5132    0.8635   21.3343 O   0  0  0  0  0  0  0  0  0  0  0  0
    7.7439   -0.2326   20.5645 N   0  0  0  0  0  0  0  0  0  0  0  0
    8.0869   -0.1185   19.3420 C   0  0  0  0  0  0  0  0  0  0  0  0
    7.1866    0.1666   18.4436 C   0  0  0  0  0  0  0  0  0  0  0  0
    7.3434    0.2926   17.3941 H   0  0  0  0  0  0  0  0  0  0  0  0
    5.9634    0.2574   19.1186 C   0  0  0  0  0  0  0  0  0  0  0  0
    4.9852    0.5122   18.7319 H   0  0  0  0  0  0  0  0  0  0  0  0
    6.2745   -0.0264   20.4181 C   0  0  0  0  0  0  0  0  0  0  0  0
    5.6902   -0.1331   21.3016 H   0  0  0  0  0  0  0  0  0  0  0  0
    7.5894   -2.6876   24.4172 H   0  0  0  0  0  0  0  0  0  0  0  0
    9.6544   -3.4605   23.2654 H   0  0  0  0  0  0  0  0  0  0  0  0
    9.7602   -2.5325   24.7997 H   0  0  0  0  0  0  0  0  0  0  0  0
    7.9759   -1.3012   22.9071 H   0  0  0  0  0  0  0  0  0  0  0  0
   11.4826   -1.2783   22.1246 H   0  0  0  0  0  0  0  0  0  0  0  0
    9.7037   -0.8998   24.0283 H   0  0  0  0  0  0  0  0  0  0  0  0
    9.1180   -0.2573   19.0522 H   0  0  0  0  0  0  0  0  0  0  0  0
 18 19  1  0  0  0  0
 17 18  2  0  0  0  0
 18 20  1  0  0  0  0
 20 21  1  0  0  0  0
 16 17  1  0  0  0  0
 20 22  2  0  0  0  0
 16 22  1  0  0  0  0
 14 16  1  0  0  0  0
 22 23  1  0  0  0  0
 14 15  2  0  0  0  0
  7 14  1  0  0  0  0
  8 12  1  0  0  0  0
  7 13  1  0  0  0  0
  8 13  1  0  0  0  0
  8 11  1  0  0  0  0
  6 13  1  0  0  0  0
 10 11  2  0  0  0  0
  9 11  1  0  0  0  0
  5  6  1  0  0  0  0
  2  5  1  0  0  0  0
  2  3  2  0  0  0  0
  1  2  1  0  0  0  0
  2  4  2  0  0  0  0
  5 24  1  0  0  0  0
  6 25  1  0  0  0  0
  6 26  1  0  0  0  0
  7 27  1  0  0  0  0
  8 28  1  0  0  0  0
 13 29  1  0  0  0  0
 17 30  1  0  0  0  0
M  CHG  1   9  -1
M  END
> <Chemgauss4>
-6.145586

$$$$
