stable:False satoms:15 tatoms:24 sratio:0.625
  -OEChem-07092417373D

 24 25  0     1  0  0  0  0  0999 V2000
    7.1098   -4.4860   26.2506 H   0  0  0  0  0  0  0  0  0  0  0  0
    8.1579   -4.2278   26.0325 C   0  0  0  0  0  0  0  0  0  0  0  0
    8.7350   -5.1536   25.9431 H   0  0  0  0  0  0  0  0  0  0  0  0
    8.5556   -3.6632   26.8744 H   0  0  0  0  0  0  0  0  0  0  0  0
    8.1770   -3.4771   24.8496 N   0  0  0  0  0  0  0  0  0  0  0  0
    9.1555   -2.9751   24.1963 N   0  0  0  0  0  0  0  0  0  0  0  0
    9.4498   -2.0724   23.6857 C   0  0  0  0  0  0  0  0  0  0  0  0
   10.8005   -1.1588   23.2117 C   0  0  1  0  0  0  0  0  0  0  0  0
   11.4548   -0.2502   23.9584 C   0  0  0  0  0  0  0  0  0  0  0  0
   12.4974    0.1109   24.0244 C   0  5  0  0  0  0  0  0  0  0  0  0
   13.3825    0.0857   23.6984 H   0  0  0  0  0  0  0  0  0  0  0  0
   12.7249   -1.5953   22.6587 H   0  0  0  0  0  0  0  0  0  0  0  0
   11.7751   -1.8133   22.6467 N   0  5  0  0  0  0  0  0  0  0  0  0
    8.8310   -0.1936   21.8545 C   0  0  3  0  0  0  0  0  0  0  0  0
    9.4938   -0.8506   22.6375 C   0  0  0  0  0  0  0  0  0  0  0  0
    8.9161    0.7565   20.9767 O   0  0  0  0  0  0  0  0  0  0  0  0
    7.6314   -0.1226   21.3945 N   0  0  2  0  0  0  0  0  0  0  0  0
    6.2216    0.5023   19.1037 C   0  0  0  0  0  0  0  0  0  0  0  0
    7.1444    0.0832   18.7326 C   0  0  0  0  0  0  0  0  0  0  0  0
    7.4324    0.1365   17.7200 N   0  0  0  0  0  0  0  0  0  0  0  0
    5.6143    0.8971   18.2919 H   0  0  0  0  0  0  0  0  0  0  0  0
    4.6418    1.1648   20.2885 H   0  0  0  0  0  0  0  0  0  0  0  0
    5.5620    0.6966   20.3922 C   0  3  0  0  0  0  0  0  0  0  0  0
    6.1197    0.3159   21.8743 S   0  0  0  0  0  0  0  0  0  0  0  0
 19 20  1  0  0  0  0
 18 21  1  0  0  0  0
 18 19  2  0  0  0  0
 18 23  1  0  0  0  0
 22 23  1  0  0  0  0
 23 24  1  0  0  0  0
 16 17  1  0  0  0  0
 14 16  1  0  0  0  0
 14 17  1  0  0  0  0
 17 24  1  0  0  0  0
 14 15  1  0  0  0  0
  8 15  1  0  0  0  0
  7 15  2  0  0  0  0
 12 13  1  0  0  0  0
  8 13  1  0  0  0  0
  7  8  1  0  0  0  0
  8  9  1  0  0  0  0
  6  7  1  0  0  0  0
 10 11  1  0  0  0  0
  9 10  2  0  0  0  0
  5  6  2  3  0  0  0
  2  5  1  0  0  0  0
  2  3  1  0  0  0  0
  1  2  1  0  0  0  0
  2  4  1  0  0  0  0
M  CHG  3  10  -1  13  -1  23   1
M  END
> <Shapegauss>
-195.655045

$$$$
