stable:False satoms:15 tatoms:24 sratio:0.625
  -OEChem-08062407093D

 32 33  0     1  0  0  0  0  0999 V2000
  -14.2721   -2.6052  -23.9579 H   0  0  0  0  0  0  0  0  0  0  0  0
  -13.7664   -1.8669  -23.3162 C   0  0  0  0  0  0  0  0  0  0  0  0
  -14.3427   -1.7530  -22.3926 H   0  0  0  0  0  0  0  0  0  0  0  0
  -13.7635   -0.9076  -23.8316 H   0  0  0  0  0  0  0  0  0  0  0  0
  -12.4660   -2.3290  -23.0738 N   0  0  0  0  0  0  0  0  0  0  0  0
  -11.5200   -1.8279  -22.3737 N   0  0  0  0  0  0  0  0  0  0  0  0
  -10.4583   -1.6431  -22.4056 C   0  0  0  0  0  0  0  0  0  0  0  0
   -9.2361   -0.6358  -21.7930 C   0  0  1  0  0  0  0  0  0  0  0  0
   -8.8644    0.5613  -22.2829 C   0  0  0  0  0  0  0  0  0  0  0  0
   -8.4494    1.4924  -21.8556 C   0  0  0  0  0  0  0  0  0  0  0  0
   -8.2583    1.5614  -20.7949 H   0  0  0  0  0  0  0  0  0  0  0  0
   -9.5456    0.5158  -20.3288 H   0  0  0  0  0  0  0  0  0  0  0  0
   -9.2493   -0.4223  -20.5078 N   0  3  0  0  0  0  0  0  0  0  0  0
   -7.9909   -2.6396  -22.8357 C   0  0  3  0  0  0  0  0  0  0  0  0
   -8.8657   -1.8702  -22.4795 C   0  0  0  0  0  0  0  0  0  0  0  0
   -6.7065   -2.8146  -22.8268 O   0  0  0  0  0  0  0  0  0  0  0  0
   -7.8572   -3.7950  -23.3860 N   0  0  2  0  0  0  0  0  0  0  0  0
   -6.2266   -6.0236  -23.3792 C   0  0  0  0  0  0  0  0  0  0  0  0
   -6.1802   -5.6668  -22.3616 C   0  0  0  0  0  0  0  0  0  0  0  0
   -5.4839   -6.0287  -21.6579 N   0  3  0  0  0  0  0  0  0  0  0  0
   -5.5307   -6.8443  -23.5404 H   0  0  0  0  0  0  0  0  0  0  0  0
   -6.9557   -5.7081  -24.6047 C   0  0  0  0  0  2  0  0  0  0  0  0
   -8.0506   -4.5270  -24.8470 S   0  0  0  0  0  0  0  0  0  0  0  0
   -9.0058    0.6284  -23.3515 H   0  0  0  0  0  0  0  0  0  0  0  0
   -8.2350    2.3330  -22.4988 H   0  0  0  0  0  0  0  0  0  0  0  0
   -8.3301   -0.5579  -20.1379 H   0  0  0  0  0  0  0  0  0  0  0  0
   -7.9334   -2.1470  -23.8176 H   0  0  0  0  0  0  0  0  0  0  0  0
   -6.8789   -4.9044  -22.0503 H   0  0  0  0  0  0  0  0  0  0  0  0
   -4.5558   -5.8557  -21.9879 H   0  0  0  0  0  0  0  0  0  0  0  0
   -5.6195   -5.5617  -20.7842 H   0  0  0  0  0  0  0  0  0  0  0  0
   -9.8822   -1.0610  -20.0703 H   0  0  0  0  0  0  0  0  0  0  0  0
   -5.6156   -7.0123  -21.5341 H   0  0  0  0  0  0  0  0  0  0  0  0
 19 20  1  0  0  0  0
 18 21  1  0  0  0  0
 18 19  2  0  0  0  0
 18 22  1  0  0  0  0
 22 23  1  0  0  0  0
 16 17  1  0  0  0  0
 14 16  1  0  0  0  0
 14 17  1  0  0  0  0
 17 23  1  0  0  0  0
 14 15  1  0  0  0  0
  8 15  1  0  0  0  0
  7 15  2  0  0  0  0
 12 13  1  0  0  0  0
  8 13  1  0  0  0  0
  7  8  1  0  0  0  0
  8  9  1  0  0  0  0
  6  7  1  0  0  0  0
 10 11  1  0  0  0  0
  9 10  2  0  0  0  0
  5  6  2  3  0  0  0
  2  5  1  0  0  0  0
  2  3  1  0  0  0  0
  1  2  1  0  0  0  0
  2  4  1  0  0  0  0
  9 24  1  0  0  0  0
 10 25  1  0  0  0  0
 13 26  1  0  0  0  0
 14 27  1  0  0  0  0
 19 28  1  0  0  0  0
 20 29  1  0  0  0  0
 20 30  1  0  0  0  0
 13 31  1  0  0  0  0
 20 32  1  0  0  0  0
M  CHG  2  13   1  20   1
M  END
> <Chemgauss4>
-7.611372

$$$$
