stable:False satoms:15 tatoms:24 sratio:0.625
  -OEChem-08062407093D

 32 33  0     1  0  0  0  0  0999 V2000
    6.1473    2.9180   23.8716 H   0  0  0  0  0  0  0  0  0  0  0  0
    7.2126    2.9076   24.1502 C   0  0  0  0  0  0  0  0  0  0  0  0
    7.3746    3.6464   24.9414 H   0  0  0  0  0  0  0  0  0  0  0  0
    7.7981    3.2091   23.2831 H   0  0  0  0  0  0  0  0  0  0  0  0
    7.5339    1.6088   24.5664 N   0  0  0  0  0  0  0  0  0  0  0  0
    8.6343    1.1198   24.9980 N   0  0  0  0  0  0  0  0  0  0  0  0
    9.2655    0.2518   24.8953 C   0  0  0  0  0  0  0  0  0  0  0  0
   10.8702   -0.2851   25.0380 C   0  0  1  0  0  0  0  0  0  0  0  0
   11.8283   -0.2046   24.0963 C   0  0  0  0  0  0  0  0  0  0  0  0
   12.9282   -0.0954   24.0996 C   0  0  0  0  0  0  0  0  0  0  0  0
   13.4614   -0.0280   25.0364 H   0  0  0  0  0  0  0  0  0  0  0  0
   12.1906    0.7613   25.8908 H   0  0  0  0  0  0  0  0  0  0  0  0
   11.5069    0.0680   26.1184 N   0  3  0  0  0  0  0  0  0  0  0  0
    9.4528   -2.4370   24.9251 C   0  0  3  0  0  0  0  0  0  0  0  0
    9.7962   -1.2683   24.9271 C   0  0  0  0  0  0  0  0  0  0  0  0
    9.9125   -3.6462   25.0096 O   0  0  0  0  0  0  0  0  0  0  0  0
    8.3823   -3.1508   24.9047 N   0  0  2  0  0  0  0  0  0  0  0  0
    7.3475   -5.5337   25.8411 C   0  0  0  0  0  0  0  0  0  0  0  0
    8.0294   -5.2251   26.6188 C   0  0  0  0  0  0  0  0  0  0  0  0
    8.3195   -5.8567   27.4113 N   0  3  0  0  0  0  0  0  0  0  0  0
    6.9509   -6.5276   26.0373 H   0  0  0  0  0  0  0  0  0  0  0  0
    6.8136   -4.9947   24.5931 C   0  0  0  0  0  2  0  0  0  0  0  0
    7.1673   -3.5743   23.8790 S   0  0  0  0  0  0  0  0  0  0  0  0
   11.4251   -0.2601   23.0959 H   0  0  0  0  0  0  0  0  0  0  0  0
   13.4697   -0.0561   23.1660 H   0  0  0  0  0  0  0  0  0  0  0  0
   11.9608   -0.7305   26.5138 H   0  0  0  0  0  0  0  0  0  0  0  0
    9.5167   -2.4720   23.8275 H   0  0  0  0  0  0  0  0  0  0  0  0
    8.4328   -4.2239   26.5833 H   0  0  0  0  0  0  0  0  0  0  0  0
    8.7698   -6.6696   27.0420 H   0  0  0  0  0  0  0  0  0  0  0  0
    8.9528   -5.3686   28.0118 H   0  0  0  0  0  0  0  0  0  0  0  0
   10.8581    0.4442   26.7798 H   0  0  0  0  0  0  0  0  0  0  0  0
    7.5110   -6.1310   27.9319 H   0  0  0  0  0  0  0  0  0  0  0  0
 19 20  1  0  0  0  0
 18 21  1  0  0  0  0
 18 19  2  0  0  0  0
 18 22  1  0  0  0  0
 22 23  1  0  0  0  0
 16 17  1  0  0  0  0
 14 16  1  0  0  0  0
 14 17  1  0  0  0  0
 17 23  1  0  0  0  0
 14 15  1  0  0  0  0
  8 15  1  0  0  0  0
  7 15  2  0  0  0  0
 12 13  1  0  0  0  0
  8 13  1  0  0  0  0
  7  8  1  0  0  0  0
  8  9  1  0  0  0  0
  6  7  1  0  0  0  0
 10 11  1  0  0  0  0
  9 10  2  0  0  0  0
  5  6  2  3  0  0  0
  2  5  1  0  0  0  0
  2  3  1  0  0  0  0
  1  2  1  0  0  0  0
  2  4  1  0  0  0  0
  9 24  1  0  0  0  0
 10 25  1  0  0  0  0
 13 26  1  0  0  0  0
 14 27  1  0  0  0  0
 19 28  1  0  0  0  0
 20 29  1  0  0  0  0
 20 30  1  0  0  0  0
 13 31  1  0  0  0  0
 20 32  1  0  0  0  0
M  CHG  2  13   1  20   1
M  END
> <Chemgauss4>
-7.052256

$$$$
