MODEL 1
REMARK VINA RESULT:    -5.277      0.000      0.000
REMARK INTER + INTRA:          -7.259
REMARK INTER:                  -6.974
REMARK INTRA:                  -0.285
REMARK UNBOUND:                -0.285
REMARK  7 active torsions:
REMARK  status: ('A' for Active; 'I' for Inactive)
REMARK    1  A    between atoms: C_2  and  N_3 
REMARK    2  A    between atoms: N_3  and  C_5 
REMARK    3  A    between atoms: C_12  and  C_13 
REMARK    4  A    between atoms: C_13  and  N_17 
REMARK    5  A    between atoms: C_13  and  N_14 
REMARK    6  A    between atoms: C_18  and  C_24 
REMARK    7  A    between atoms: C_23  and  C_24 
ROOT
HETATM    1  N   UNL     1       4.275   1.849  19.504  1.00  0.00    -0.192 NA
HETATM    2  C   UNL     1       4.968   1.118  19.177  1.00  0.00     0.088 C 
HETATM    3  C   UNL     1       5.907   0.276  18.815  1.00  0.00     0.097 C 
ENDROOT
BRANCH   3   4
HETATM    4  C   UNL     1       7.077   0.355  18.776  1.00  0.00     0.056 C 
BRANCH   4   5
HETATM    5  C   UNL     1       7.573   0.105  20.304  1.00  0.00     0.119 A 
HETATM    6  N   UNL     1       8.227   0.633  20.905  1.00  0.00    -0.125 NA
HETATM    7  N   UNL     1       7.293  -0.596  21.028  1.00  0.00    -0.296 N 
ATOM      8  HN  UNL     1       6.818  -1.395  21.449  1.00  0.00     0.183 HD
BRANCH   6   9
HETATM    9  C   UNL     1       9.745   0.238  21.804  1.00  0.00     0.131 C 
BRANCH   9  10
HETATM   10  C   UNL     1       9.710   0.622  22.950  1.00  0.00     0.111 A 
HETATM   11  N   UNL     1       9.180  -0.213  24.010  1.00  0.00    -0.187 N 
HETATM   12  C   UNL     1       9.257   0.307  25.151  1.00  0.00     0.679 A 
ATOM     13  HN  UNL     1       8.782  -1.137  23.845  1.00  0.00     0.184 HD
HETATM   14  N   UNL     1       9.807   1.622  24.975  1.00  0.00    -0.194 N 
HETATM   15  C   UNL     1      10.113   1.821  23.794  1.00  0.00     0.053 A 
ATOM     16  HN  UNL     1       9.929   2.302  25.725  1.00  0.00     0.184 HD
HETATM   17  C   UNL     1      11.047   2.799  23.259  1.00  0.00     0.071 C 
BRANCH  12  18
HETATM   18  N   UNL     1       8.796  -0.387  26.203  1.00  0.00    -0.213 N 
ATOM     19  HN  UNL     1       9.196  -0.085  27.091  1.00  0.00     0.178 HD
BRANCH  18  20
HETATM   20  C   UNL     1       7.867  -1.454  26.340  1.00  0.00     0.253 C 
HETATM   21 CL   UNL     1       8.674  -3.002  25.976  1.00  0.00    -0.108 Cl
ENDBRANCH  18  20
ENDBRANCH  12  18
ENDBRANCH   9  10
BRANCH   9  22
HETATM   22  N   UNL     1      10.580  -0.191  21.444  1.00  0.00    -0.386 N 
ATOM     23  HN2 UNL     1      10.700  -0.670  20.551  1.00  0.00     0.157 HD
ATOM     24  HN1 UNL     1      11.455  -0.117  21.963  1.00  0.00     0.157 HD
ENDBRANCH   9  22
ENDBRANCH   6   9
ENDBRANCH   4   5
ENDBRANCH   3   4
TORSDOF 7
ENDMDL
MODEL 2
REMARK VINA RESULT:    -5.080      3.330      5.143
REMARK INTER + INTRA:          -6.999
REMARK INTER:                  -6.975
REMARK INTRA:                  -0.024
REMARK UNBOUND:                -0.285
REMARK  7 active torsions:
REMARK  status: ('A' for Active; 'I' for Inactive)
REMARK    1  A    between atoms: C_2  and  N_3 
REMARK    2  A    between atoms: N_3  and  C_5 
REMARK    3  A    between atoms: C_12  and  C_13 
REMARK    4  A    between atoms: C_13  and  N_17 
REMARK    5  A    between atoms: C_13  and  N_14 
REMARK    6  A    between atoms: C_18  and  C_24 
REMARK    7  A    between atoms: C_23  and  C_24 
ROOT
HETATM    1  N   UNL     1      10.661   1.318  24.792  1.00  0.00    -0.192 NA
HETATM    2  C   UNL     1      10.432   1.699  23.831  1.00  0.00     0.088 C 
HETATM    3  C   UNL     1      10.045   2.133  22.654  1.00  0.00     0.097 C 
ENDROOT
BRANCH   3   4
HETATM    4  C   UNL     1       9.091   1.928  22.004  1.00  0.00     0.056 C 
BRANCH   4   5
HETATM    5  C   UNL     1       9.106   0.327  21.717  1.00  0.00     0.119 A 
HETATM    6  N   UNL     1       8.785  -0.472  22.288  1.00  0.00    -0.125 NA
HETATM    7  N   UNL     1       9.376  -0.234  20.877  1.00  0.00    -0.296 N 
ATOM      8  HN  UNL     1       9.725  -0.443  19.941  1.00  0.00     0.183 HD
BRANCH   6   9
HETATM    9  C   UNL     1       9.554  -1.973  22.940  1.00  0.00     0.131 C 
BRANCH   9  10
HETATM   10  C   UNL     1       8.766  -2.668  23.536  1.00  0.00     0.111 A 
HETATM   11  N   UNL     1       8.216  -3.869  22.940  1.00  0.00    -0.187 N 
HETATM   12  C   UNL     1       7.448  -4.508  23.702  1.00  0.00     0.679 A 
ATOM     13  HN  UNL     1       8.431  -4.167  21.988  1.00  0.00     0.184 HD
HETATM   14  N   UNL     1       7.341  -3.751  24.917  1.00  0.00    -0.194 N 
HETATM   15  C   UNL     1       8.080  -2.761  24.891  1.00  0.00     0.053 A 
ATOM     16  HN  UNL     1       6.735  -3.998  25.700  1.00  0.00     0.184 HD
HETATM   17  C   UNL     1       8.589  -1.987  26.012  1.00  0.00     0.071 C 
BRANCH  12  18
HETATM   18  N   UNL     1       6.888  -5.639  23.245  1.00  0.00    -0.213 N 
ATOM     19  HN  UNL     1       6.251  -6.071  23.913  1.00  0.00     0.178 HD
BRANCH  18  20
HETATM   20  C   UNL     1       6.997  -6.360  22.025  1.00  0.00     0.253 C 
HETATM   21 CL   UNL     1       6.012  -5.566  20.768  1.00  0.00    -0.108 Cl
ENDBRANCH  18  20
ENDBRANCH  12  18
ENDBRANCH   9  10
BRANCH   9  22
HETATM   22  N   UNL     1      10.525  -2.233  22.902  1.00  0.00    -0.386 N 
ATOM     23  HN2 UNL     1      10.939  -3.136  23.134  1.00  0.00     0.157 HD
ATOM     24  HN1 UNL     1      11.215  -1.573  22.542  1.00  0.00     0.157 HD
ENDBRANCH   9  22
ENDBRANCH   6   9
ENDBRANCH   4   5
ENDBRANCH   3   4
TORSDOF 7
ENDMDL
MODEL 3
REMARK VINA RESULT:    -4.984      5.940      7.306
REMARK INTER + INTRA:          -6.872
REMARK INTER:                  -6.420
REMARK INTRA:                  -0.452
REMARK UNBOUND:                -0.285
REMARK  7 active torsions:
REMARK  status: ('A' for Active; 'I' for Inactive)
REMARK    1  A    between atoms: C_2  and  N_3 
REMARK    2  A    between atoms: N_3  and  C_5 
REMARK    3  A    between atoms: C_12  and  C_13 
REMARK    4  A    between atoms: C_13  and  N_17 
REMARK    5  A    between atoms: C_13  and  N_14 
REMARK    6  A    between atoms: C_18  and  C_24 
REMARK    7  A    between atoms: C_23  and  C_24 
ROOT
HETATM    1  N   UNL     1       3.921  -4.801  23.105  1.00  0.00    -0.192 NA
HETATM    2  C   UNL     1       4.824  -5.309  22.884  1.00  0.00     0.088 C 
HETATM    3  C   UNL     1       5.988  -5.839  22.592  1.00  0.00     0.097 C 
ENDROOT
BRANCH   3   4
HETATM    4  C   UNL     1       6.967  -5.400  22.118  1.00  0.00     0.056 C 
BRANCH   4   5
HETATM    5  C   UNL     1       7.867  -4.903  23.379  1.00  0.00     0.119 A 
HETATM    6  N   UNL     1       8.218  -5.410  24.208  1.00  0.00    -0.125 NA
HETATM    7  N   UNL     1       8.338  -3.994  23.590  1.00  0.00    -0.296 N 
ATOM      8  HN  UNL     1       8.626  -3.021  23.483  1.00  0.00     0.183 HD
BRANCH   6   9
HETATM    9  C   UNL     1       8.069  -5.197  25.997  1.00  0.00     0.131 C 
BRANCH   9  10
HETATM   10  C   UNL     1       6.917  -5.201  26.363  1.00  0.00     0.111 A 
HETATM   11  N   UNL     1       6.367  -6.313  27.113  1.00  0.00    -0.187 N 
HETATM   12  C   UNL     1       5.171  -6.147  27.462  1.00  0.00     0.679 A 
ATOM     13  HN  UNL     1       6.901  -7.152  27.337  1.00  0.00     0.184 HD
HETATM   14  N   UNL     1       4.746  -4.890  26.912  1.00  0.00    -0.194 N 
HETATM   15  C   UNL     1       5.681  -4.315  26.342  1.00  0.00     0.053 A 
ATOM     16  HN  UNL     1       3.798  -4.519  26.983  1.00  0.00     0.184 HD
HETATM   17  C   UNL     1       5.811  -2.901  26.030  1.00  0.00     0.071 C 
BRANCH  12  18
HETATM   18  N   UNL     1       4.569  -7.118  28.164  1.00  0.00    -0.213 N 
ATOM     19  HN  UNL     1       4.473  -7.991  27.645  1.00  0.00     0.178 HD
BRANCH  18  20
HETATM   20  C   UNL     1       4.037  -7.188  29.481  1.00  0.00     0.253 C 
HETATM   21 CL   UNL     1       3.695  -5.543  30.078  1.00  0.00    -0.108 Cl
ENDBRANCH  18  20
ENDBRANCH  12  18
ENDBRANCH   9  10
BRANCH   9  22
HETATM   22  N   UNL     1       8.806  -5.029  26.660  1.00  0.00    -0.386 N 
ATOM     23  HN2 UNL     1       9.727  -5.466  26.694  1.00  0.00     0.157 HD
ATOM     24  HN1 UNL     1       8.696  -4.306  27.371  1.00  0.00     0.157 HD
ENDBRANCH   9  22
ENDBRANCH   6   9
ENDBRANCH   4   5
ENDBRANCH   3   4
TORSDOF 7
ENDMDL
MODEL 4
REMARK VINA RESULT:    -4.972     22.052     24.278
REMARK INTER + INTRA:          -6.856
REMARK INTER:                  -6.790
REMARK INTRA:                  -0.066
REMARK UNBOUND:                -0.285
REMARK  7 active torsions:
REMARK  status: ('A' for Active; 'I' for Inactive)
REMARK    1  A    between atoms: C_2  and  N_3 
REMARK    2  A    between atoms: N_3  and  C_5 
REMARK    3  A    between atoms: C_12  and  C_13 
REMARK    4  A    between atoms: C_13  and  N_17 
REMARK    5  A    between atoms: C_13  and  N_14 
REMARK    6  A    between atoms: C_18  and  C_24 
REMARK    7  A    between atoms: C_23  and  C_24 
ROOT
HETATM    1  N   UNL     1      -1.522 -23.582   9.877  1.00  0.00    -0.192 NA
HETATM    2  C   UNL     1      -0.726 -22.883   9.889  1.00  0.00     0.088 C 
HETATM    3  C   UNL     1       0.269 -22.033   9.796  1.00  0.00     0.097 C 
ENDROOT
BRANCH   3   4
HETATM    4  C   UNL     1       1.030 -21.789   8.937  1.00  0.00     0.056 C 
BRANCH   4   5
HETATM    5  C   UNL     1       1.716 -20.377   9.364  1.00  0.00     0.119 A 
HETATM    6  N   UNL     1       1.306 -19.502   9.730  1.00  0.00    -0.125 NA
HETATM    7  N   UNL     1       2.714 -20.071   9.426  1.00  0.00    -0.296 N 
ATOM      8  HN  UNL     1       3.731 -20.112   9.351  1.00  0.00     0.183 HD
BRANCH   6   9
HETATM    9  C   UNL     1       1.310 -17.770   9.212  1.00  0.00     0.131 C 
BRANCH   9  10
HETATM   10  C   UNL     1       0.415 -17.138   9.723  1.00  0.00     0.111 A 
HETATM   11  N   UNL     1       0.393 -16.878  11.149  1.00  0.00    -0.187 N 
HETATM   12  C   UNL     1      -0.575 -16.169  11.520  1.00  0.00     0.679 A 
ATOM     13  HN  UNL     1       1.098 -17.239  11.792  1.00  0.00     0.184 HD
HETATM   14  N   UNL     1      -1.377 -15.915  10.357  1.00  0.00    -0.194 N 
HETATM   15  C   UNL     1      -0.851 -16.386   9.342  1.00  0.00     0.053 A 
ATOM     16  HN  UNL     1      -2.264 -15.411  10.366  1.00  0.00     0.184 HD
HETATM   17  C   UNL     1      -1.082 -16.018   7.955  1.00  0.00     0.071 C 
BRANCH  12  18
HETATM   18  N   UNL     1      -0.684 -15.867  12.823  1.00  0.00    -0.213 N 
ATOM     19  HN  UNL     1      -0.554 -14.875  13.019  1.00  0.00     0.178 HD
BRANCH  18  20
HETATM   20  C   UNL     1      -0.944 -16.640  13.988  1.00  0.00     0.253 C 
HETATM   21 CL   UNL     1      -2.674 -17.064  14.054  1.00  0.00    -0.108 Cl
ENDBRANCH  18  20
ENDBRANCH  12  18
ENDBRANCH   9  10
BRANCH   9  22
HETATM   22  N   UNL     1       1.913 -17.331   8.538  1.00  0.00    -0.386 N 
ATOM     23  HN2 UNL     1       2.566 -17.782   7.897  1.00  0.00     0.157 HD
ATOM     24  HN1 UNL     1       1.866 -16.322   8.394  1.00  0.00     0.157 HD
ENDBRANCH   9  22
ENDBRANCH   6   9
ENDBRANCH   4   5
ENDBRANCH   3   4
TORSDOF 7
ENDMDL
MODEL 5
REMARK VINA RESULT:    -4.959      2.861      5.317
REMARK INTER + INTRA:          -6.839
REMARK INTER:                  -6.344
REMARK INTRA:                  -0.495
REMARK UNBOUND:                -0.285
REMARK  7 active torsions:
REMARK  status: ('A' for Active; 'I' for Inactive)
REMARK    1  A    between atoms: C_2  and  N_3 
REMARK    2  A    between atoms: N_3  and  C_5 
REMARK    3  A    between atoms: C_12  and  C_13 
REMARK    4  A    between atoms: C_13  and  N_17 
REMARK    5  A    between atoms: C_13  and  N_14 
REMARK    6  A    between atoms: C_18  and  C_24 
REMARK    7  A    between atoms: C_23  and  C_24 
ROOT
HETATM    1  N   UNL     1       7.695   2.531  22.905  1.00  0.00    -0.192 NA
HETATM    2  C   UNL     1       8.526   2.573  23.560  1.00  0.00     0.088 C 
HETATM    3  C   UNL     1       9.620   2.636  24.281  1.00  0.00     0.097 C 
ENDROOT
BRANCH   3   4
HETATM    4  C   UNL     1      10.760   2.582  24.007  1.00  0.00     0.056 C 
BRANCH   4   5
HETATM    5  C   UNL     1      11.058   1.007  23.732  1.00  0.00     0.119 A 
HETATM    6  N   UNL     1      10.795   0.390  22.947  1.00  0.00    -0.125 NA
HETATM    7  N   UNL     1      11.631   0.300  24.247  1.00  0.00    -0.296 N 
ATOM      8  HN  UNL     1      12.225  -0.100  24.974  1.00  0.00     0.183 HD
BRANCH   6   9
HETATM    9  C   UNL     1       9.891  -1.168  22.789  1.00  0.00     0.131 C 
BRANCH   9  10
HETATM   10  C   UNL     1       8.695  -0.999  22.734  1.00  0.00     0.111 A 
HETATM   11  N   UNL     1       8.050  -0.564  21.511  1.00  0.00    -0.187 N 
HETATM   12  C   UNL     1       6.799  -0.480  21.600  1.00  0.00     0.679 A 
ATOM     13  HN  UNL     1       8.563  -0.346  20.658  1.00  0.00     0.184 HD
HETATM   14  N   UNL     1       6.455  -0.798  22.958  1.00  0.00    -0.194 N 
HETATM   15  C   UNL     1       7.454  -1.133  23.603  1.00  0.00     0.053 A 
ATOM     16  HN  UNL     1       5.510  -0.754  23.339  1.00  0.00     0.184 HD
HETATM   17  C   UNL     1       7.514  -1.908  24.832  1.00  0.00     0.071 C 
BRANCH  12  18
HETATM   18  N   UNL     1       6.106  -0.089  20.520  1.00  0.00    -0.213 N 
ATOM     19  HN  UNL     1       5.967   0.921  20.475  1.00  0.00     0.178 HD
BRANCH  18  20
HETATM   20  C   UNL     1       5.524  -0.784  19.426  1.00  0.00     0.253 C 
HETATM   21 CL   UNL     1       5.648   0.208  17.950  1.00  0.00    -0.108 Cl
ENDBRANCH  18  20
ENDBRANCH  12  18
ENDBRANCH   9  10
BRANCH   9  22
HETATM   22  N   UNL     1      10.266  -2.101  22.801  1.00  0.00    -0.386 N 
ATOM     23  HN2 UNL     1      11.068  -2.445  23.329  1.00  0.00     0.157 HD
ATOM     24  HN1 UNL     1       9.793  -2.846  22.290  1.00  0.00     0.157 HD
ENDBRANCH   9  22
ENDBRANCH   6   9
ENDBRANCH   4   5
ENDBRANCH   3   4
TORSDOF 7
ENDMDL
MODEL 6
REMARK VINA RESULT:    -4.834      3.529      5.578
REMARK INTER + INTRA:          -6.673
REMARK INTER:                  -6.350
REMARK INTRA:                  -0.323
REMARK UNBOUND:                -0.285
REMARK  7 active torsions:
REMARK  status: ('A' for Active; 'I' for Inactive)
REMARK    1  A    between atoms: C_2  and  N_3 
REMARK    2  A    between atoms: N_3  and  C_5 
REMARK    3  A    between atoms: C_12  and  C_13 
REMARK    4  A    between atoms: C_13  and  N_17 
REMARK    5  A    between atoms: C_13  and  N_14 
REMARK    6  A    between atoms: C_18  and  C_24 
REMARK    7  A    between atoms: C_23  and  C_24 
ROOT
HETATM    1  N   UNL     1       6.672  -6.034  26.532  1.00  0.00    -0.192 NA
HETATM    2  C   UNL     1       6.658  -5.278  25.790  1.00  0.00     0.088 C 
HETATM    3  C   UNL     1       6.699  -4.409  24.808  1.00  0.00     0.097 C 
ENDROOT
BRANCH   3   4
HETATM    4  C   UNL     1       7.319  -4.361  23.813  1.00  0.00     0.056 C 
BRANCH   4   5
HETATM    5  C   UNL     1       8.319  -3.090  23.994  1.00  0.00     0.119 A 
HETATM    6  N   UNL     1       8.426  -2.222  23.445  1.00  0.00    -0.125 NA
HETATM    7  N   UNL     1       9.015  -2.845  24.735  1.00  0.00    -0.296 N 
ATOM      8  HN  UNL     1       9.586  -2.936  25.575  1.00  0.00     0.183 HD
BRANCH   6   9
HETATM    9  C   UNL     1       9.790  -1.417  22.573  1.00  0.00     0.131 C 
BRANCH   9  10
HETATM   10  C   UNL     1       9.829  -0.228  22.785  1.00  0.00     0.111 A 
HETATM   11  N   UNL     1       8.955   0.694  22.087  1.00  0.00    -0.187 N 
HETATM   12  C   UNL     1       9.083   1.889  22.452  1.00  0.00     0.679 A 
ATOM     13  HN  UNL     1       8.298   0.399  21.365  1.00  0.00     0.184 HD
HETATM   14  N   UNL     1      10.139   1.918  23.425  1.00  0.00    -0.194 N 
HETATM   15  C   UNL     1      10.546   0.778  23.673  1.00  0.00     0.053 A 
ATOM     16  HN  UNL     1      10.505   2.768  23.855  1.00  0.00     0.184 HD
HETATM   17  C   UNL     1      11.271   0.317  24.846  1.00  0.00     0.071 C 
BRANCH  12  18
HETATM   18  N   UNL     1       8.316   2.822  21.867  1.00  0.00    -0.213 N 
ATOM     19  HN  UNL     1       8.701   3.167  20.988  1.00  0.00     0.178 HD
BRANCH  18  20
HETATM   20  C   UNL     1       7.080   3.431  22.216  1.00  0.00     0.253 C 
HETATM   21 CL   UNL     1       7.266   5.204  22.226  1.00  0.00    -0.108 Cl
ENDBRANCH  18  20
ENDBRANCH  12  18
ENDBRANCH   9  10
BRANCH   9  22
HETATM   22  N   UNL     1      10.437  -1.833  21.926  1.00  0.00    -0.386 N 
ATOM     23  HN2 UNL     1      11.033  -1.359  21.247  1.00  0.00     0.157 HD
ATOM     24  HN1 UNL     1      10.601  -2.840  21.947  1.00  0.00     0.157 HD
ENDBRANCH   9  22
ENDBRANCH   6   9
ENDBRANCH   4   5
ENDBRANCH   3   4
TORSDOF 7
ENDMDL
MODEL 7
REMARK VINA RESULT:    -4.803      3.036      4.140
REMARK INTER + INTRA:          -6.632
REMARK INTER:                  -6.565
REMARK INTRA:                  -0.067
REMARK UNBOUND:                -0.285
REMARK  7 active torsions:
REMARK  status: ('A' for Active; 'I' for Inactive)
REMARK    1  A    between atoms: C_2  and  N_3 
REMARK    2  A    between atoms: N_3  and  C_5 
REMARK    3  A    between atoms: C_12  and  C_13 
REMARK    4  A    between atoms: C_13  and  N_17 
REMARK    5  A    between atoms: C_13  and  N_14 
REMARK    6  A    between atoms: C_18  and  C_24 
REMARK    7  A    between atoms: C_23  and  C_24 
ROOT
HETATM    1  N   UNL     1       4.598   1.496  19.273  1.00  0.00    -0.192 NA
HETATM    2  C   UNL     1       5.406   0.851  19.502  1.00  0.00     0.088 C 
HETATM    3  C   UNL     1       6.452   0.136  19.843  1.00  0.00     0.097 C 
ENDROOT
BRANCH   3   4
HETATM    4  C   UNL     1       7.484   0.413  20.327  1.00  0.00     0.056 C 
BRANCH   4   5
HETATM    5  C   UNL     1       7.182   0.561  21.919  1.00  0.00     0.119 A 
HETATM    6  N   UNL     1       7.399   1.318  22.587  1.00  0.00    -0.125 NA
HETATM    7  N   UNL     1       6.650  -0.038  22.591  1.00  0.00    -0.296 N 
ATOM      8  HN  UNL     1       6.109  -0.828  22.944  1.00  0.00     0.183 HD
BRANCH   6   9
HETATM    9  C   UNL     1       8.305   1.429  24.148  1.00  0.00     0.131 C 
BRANCH   9  10
HETATM   10  C   UNL     1       9.391   1.942  24.010  1.00  0.00     0.111 A 
HETATM   11  N   UNL     1       9.526   3.350  23.694  1.00  0.00    -0.187 N 
HETATM   12  C   UNL     1      10.718   3.743  23.631  1.00  0.00     0.679 A 
ATOM     13  HN  UNL     1       8.728   3.965  23.537  1.00  0.00     0.184 HD
HETATM   14  N   UNL     1      11.549   2.592  23.842  1.00  0.00    -0.194 N 
HETATM   15  C   UNL     1      10.868   1.593  24.099  1.00  0.00     0.053 A 
ATOM     16  HN  UNL     1      12.568   2.597  23.786  1.00  0.00     0.184 HD
HETATM   17  C   UNL     1      11.282   0.369  24.767  1.00  0.00     0.071 C 
BRANCH  12  18
HETATM   18  N   UNL     1      10.951   5.034  23.346  1.00  0.00    -0.213 N 
ATOM     19  HN  UNL     1      11.315   5.179  22.405  1.00  0.00     0.178 HD
BRANCH  18  20
HETATM   20  C   UNL     1      10.799   6.241  24.081  1.00  0.00     0.253 C 
HETATM   21 CL   UNL     1      12.180   6.448  25.189  1.00  0.00    -0.108 Cl
ENDBRANCH  18  20
ENDBRANCH  12  18
ENDBRANCH   9  10
BRANCH   9  22
HETATM   22  N   UNL     1       8.028   1.074  25.047  1.00  0.00    -0.386 N 
ATOM     23  HN2 UNL     1       8.630   0.821  25.831  1.00  0.00     0.157 HD
ATOM     24  HN1 UNL     1       7.038   0.990  25.278  1.00  0.00     0.157 HD
ENDBRANCH   9  22
ENDBRANCH   6   9
ENDBRANCH   4   5
ENDBRANCH   3   4
TORSDOF 7
ENDMDL
MODEL 8
REMARK VINA RESULT:    -4.771     16.909     18.995
REMARK INTER + INTRA:          -6.590
REMARK INTER:                  -6.568
REMARK INTRA:                  -0.022
REMARK UNBOUND:                -0.285
REMARK  7 active torsions:
REMARK  status: ('A' for Active; 'I' for Inactive)
REMARK    1  A    between atoms: C_2  and  N_3 
REMARK    2  A    between atoms: N_3  and  C_5 
REMARK    3  A    between atoms: C_12  and  C_13 
REMARK    4  A    between atoms: C_13  and  N_17 
REMARK    5  A    between atoms: C_13  and  N_14 
REMARK    6  A    between atoms: C_18  and  C_24 
REMARK    7  A    between atoms: C_23  and  C_24 
ROOT
HETATM    1  N   UNL     1      25.289  -5.099  19.150  1.00  0.00    -0.192 NA
HETATM    2  C   UNL     1      24.665  -4.634  18.433  1.00  0.00     0.088 C 
HETATM    3  C   UNL     1      23.979  -4.051  17.479  1.00  0.00     0.097 C 
ENDROOT
BRANCH   3   4
HETATM    4  C   UNL     1      24.296  -3.503  16.490  1.00  0.00     0.056 C 
BRANCH   4   5
HETATM    5  C   UNL     1      23.529  -2.069  16.533  1.00  0.00     0.119 A 
HETATM    6  N   UNL     1      23.332  -1.378  15.791  1.00  0.00    -0.125 NA
HETATM    7  N   UNL     1      23.017  -1.569  17.295  1.00  0.00    -0.296 N 
ATOM      8  HN  UNL     1      22.638  -1.375  18.223  1.00  0.00     0.183 HD
BRANCH   6   9
HETATM    9  C   UNL     1      23.694   0.376  15.543  1.00  0.00     0.131 C 
BRANCH   9  10
HETATM   10  C   UNL     1      24.511   0.554  14.670  1.00  0.00     0.111 A 
HETATM   11  N   UNL     1      24.124   1.051  13.364  1.00  0.00    -0.187 N 
HETATM   12  C   UNL     1      25.091   1.229  12.582  1.00  0.00     0.679 A 
ATOM     13  HN  UNL     1      23.155   1.237  13.104  1.00  0.00     0.184 HD
HETATM   14  N   UNL     1      26.272   0.797  13.275  1.00  0.00    -0.194 N 
HETATM   15  C   UNL     1      26.011   0.464  14.435  1.00  0.00     0.053 A 
ATOM     16  HN  UNL     1      27.206   0.770  12.863  1.00  0.00     0.184 HD
HETATM   17  C   UNL     1      26.914   0.372  15.571  1.00  0.00     0.071 C 
BRANCH  12  18
HETATM   18  N   UNL     1      24.839   1.690  11.347  1.00  0.00    -0.213 N 
ATOM     19  HN  UNL     1      24.169   1.118  10.833  1.00  0.00     0.178 HD
BRANCH  18  20
HETATM   20  C   UNL     1      25.309   2.807  10.605  1.00  0.00     0.253 C 
HETATM   21 CL   UNL     1      23.972   3.497   9.648  1.00  0.00    -0.108 Cl
ENDBRANCH  18  20
ENDBRANCH  12  18
ENDBRANCH   9  10
BRANCH   9  22
HETATM   22  N   UNL     1      23.344   1.157  16.071  1.00  0.00    -0.386 N 
ATOM     23  HN2 UNL     1      23.356   1.282  17.083  1.00  0.00     0.157 HD
ATOM     24  HN1 UNL     1      22.976   1.975  15.585  1.00  0.00     0.157 HD
ENDBRANCH   9  22
ENDBRANCH   6   9
ENDBRANCH   4   5
ENDBRANCH   3   4
TORSDOF 7
ENDMDL
MODEL 9
REMARK VINA RESULT:    -4.753     17.316     19.170
REMARK INTER + INTRA:          -6.567
REMARK INTER:                  -6.238
REMARK INTRA:                  -0.329
REMARK UNBOUND:                -0.285
REMARK  7 active torsions:
REMARK  status: ('A' for Active; 'I' for Inactive)
REMARK    1  A    between atoms: C_2  and  N_3 
REMARK    2  A    between atoms: N_3  and  C_5 
REMARK    3  A    between atoms: C_12  and  C_13 
REMARK    4  A    between atoms: C_13  and  N_17 
REMARK    5  A    between atoms: C_13  and  N_14 
REMARK    6  A    between atoms: C_18  and  C_24 
REMARK    7  A    between atoms: C_23  and  C_24 
ROOT
HETATM    1  N   UNL     1      24.719   6.600  12.472  1.00  0.00    -0.192 NA
HETATM    2  C   UNL     1      24.880   5.987  11.624  1.00  0.00     0.088 C 
HETATM    3  C   UNL     1      24.972   5.206  10.574  1.00  0.00     0.097 C 
ENDROOT
BRANCH   3   4
HETATM    4  C   UNL     1      24.231   4.440  10.084  1.00  0.00     0.056 C 
BRANCH   4   5
HETATM    5  C   UNL     1      24.684   2.984  10.651  1.00  0.00     0.119 A 
HETATM    6  N   UNL     1      24.586   2.556  11.586  1.00  0.00    -0.125 NA
HETATM    7  N   UNL     1      25.106   2.149  10.185  1.00  0.00    -0.296 N 
ATOM      8  HN  UNL     1      25.508   1.569   9.448  1.00  0.00     0.183 HD
BRANCH   6   9
HETATM    9  C   UNL     1      25.729   1.854  12.800  1.00  0.00     0.131 C 
BRANCH   9  10
HETATM   10  C   UNL     1      25.299   0.841  13.299  1.00  0.00     0.111 A 
HETATM   11  N   UNL     1      24.564   0.868  14.548  1.00  0.00    -0.187 N 
HETATM   12  C   UNL     1      24.142  -0.259  14.913  1.00  0.00     0.679 A 
ATOM     13  HN  UNL     1      24.404   1.721  15.082  1.00  0.00     0.184 HD
HETATM   14  N   UNL     1      24.616  -1.213  13.950  1.00  0.00    -0.194 N 
HETATM   15  C   UNL     1      25.214  -0.653  13.025  1.00  0.00     0.053 A 
ATOM     16  HN  UNL     1      24.477  -2.222  14.021  1.00  0.00     0.184 HD
HETATM   17  C   UNL     1      25.477  -1.157  11.687  1.00  0.00     0.071 C 
BRANCH  12  18
HETATM   18  N   UNL     1      23.445  -0.341  16.056  1.00  0.00    -0.213 N 
ATOM     19  HN  UNL     1      23.200   0.569  16.445  1.00  0.00     0.178 HD
BRANCH  18  20
HETATM   20  C   UNL     1      22.977  -1.430  16.841  1.00  0.00     0.253 C 
HETATM   21 CL   UNL     1      22.677  -0.882  18.511  1.00  0.00    -0.108 Cl
ENDBRANCH  18  20
ENDBRANCH  12  18
ENDBRANCH   9  10
BRANCH   9  22
HETATM   22  N   UNL     1      26.603   2.238  13.115  1.00  0.00    -0.386 N 
ATOM     23  HN2 UNL     1      27.015   3.137  12.869  1.00  0.00     0.157 HD
ATOM     24  HN1 UNL     1      27.157   1.737  13.810  1.00  0.00     0.157 HD
ENDBRANCH   9  22
ENDBRANCH   6   9
ENDBRANCH   4   5
ENDBRANCH   3   4
TORSDOF 7
ENDMDL
