REMARK  7 active torsions:
REMARK  status: ('A' for Active; 'I' for Inactive)
REMARK    1  A    between atoms: C_2  and  N_3 
REMARK    2  A    between atoms: N_3  and  C_5 
REMARK    3  A    between atoms: C_12  and  C_13 
REMARK    4  A    between atoms: C_13  and  N_17 
REMARK    5  A    between atoms: C_13  and  N_14 
REMARK    6  A    between atoms: C_18  and  C_24 
REMARK    7  A    between atoms: C_23  and  C_24 
ROOT
HETATM    1  N   UNL     1       6.344   0.509  17.336  1.00  0.00    -0.192 NA
HETATM    2  C   UNL     1       5.791   0.622  18.232  1.00  0.00     0.088 C 
HETATM    3  C   UNL     1       5.200   0.743  19.397  1.00  0.00     0.097 C 
ENDROOT
BRANCH   3   4
HETATM    4  C   UNL     1       5.538   0.492  20.492  1.00  0.00     0.056 C 
BRANCH   4   5
HETATM    5  C   UNL     1       7.058  -0.070  20.351  1.00  0.00     0.119 A 
HETATM    6  N   UNL     1       7.694  -0.499  21.043  1.00  0.00    -0.125 NA
HETATM    7  N   UNL     1       7.692  -0.182  19.527  1.00  0.00    -0.296 N 
ATOM      8  HN  UNL     1       8.022  -0.129  18.563  1.00  0.00     0.183 HD
BRANCH   6   9
HETATM    9  C   UNL     1       9.353  -0.130  21.660  1.00  0.00     0.131 C 
BRANCH   9  10
HETATM   10  C   UNL     1       9.642  -0.801  22.623  1.00  0.00     0.111 A 
HETATM   11  N   UNL     1       8.720  -1.778  23.167  1.00  0.00    -0.187 N 
HETATM   12  C   UNL     1       9.184  -2.428  24.137  1.00  0.00     0.679 A 
ATOM     13  HN  UNL     1       7.781  -1.924  22.797  1.00  0.00     0.184 HD
HETATM   14  N   UNL     1      10.492  -1.900  24.406  1.00  0.00    -0.194 N 
HETATM   15  C   UNL     1      10.804  -1.040  23.575  1.00  0.00     0.053 A 
ATOM     16  HN  UNL     1      11.086  -2.196  25.181  1.00  0.00     0.184 HD
HETATM   17  C   UNL     1      12.134  -0.569  23.223  1.00  0.00     0.071 C 
BRANCH  12  18
HETATM   18  N   UNL     1       8.409  -3.361  24.711  1.00  0.00    -0.213 N 
ATOM     19  HN  UNL     1       7.678  -3.713  24.093  1.00  0.00     0.178 HD
BRANCH  18  20
HETATM   20  C   UNL     1       8.392  -3.962  25.999  1.00  0.00     0.253 C 
HETATM   21 CL   UNL     1       6.803  -4.717  26.288  1.00  0.00    -0.108 Cl
ENDBRANCH  18  20
ENDBRANCH  12  18
ENDBRANCH   9  10
BRANCH   9  22
HETATM   22  N   UNL     1       9.989   0.576  21.331  1.00  0.00    -0.386 N 
ATOM     23  HN2 UNL     1      10.925   0.784  21.679  1.00  0.00     0.157 HD
ATOM     24  HN1 UNL     1       9.745   1.142  20.518  1.00  0.00     0.157 HD
ENDBRANCH   9  22
ENDBRANCH   6   9
ENDBRANCH   4   5
ENDBRANCH   3   4
TORSDOF 7
