stable:False satoms:16 tatoms:24 sratio:0.6666666666666666
  -OEChem-07092417383D

 24 24  0     0  0  0  0  0  0999 V2000
    6.6814   -4.7307   26.4527 Cl  0  0  0  0  0  0  0  0  0  0  0  0
    8.3031   -4.2144   25.9061 C   0  0  0  0  0  0  0  0  0  0  0  0
    8.9044   -5.1693   25.7560 H   0  0  0  0  0  0  0  0  0  0  0  0
    8.7378   -3.6044   26.7483 H   0  0  0  0  0  0  0  0  0  0  0  0
    8.1599   -3.4658   24.6884 N   0  0  0  0  0  0  0  0  0  0  0  0
    9.1001   -2.8869   24.1530 C   0  0  0  0  0  0  0  0  0  0  0  0
    9.0471   -1.8035   23.5368 N   0  0  0  0  0  0  0  0  0  0  0  0
   10.8711   -1.1898   23.2348 C   0  0  0  0  0  0  0  0  0  0  0  0
   11.2338   -0.3357   24.2002 O   0  0  0  0  0  0  0  0  0  0  0  0
   12.3885    0.3620   24.3069 N   0  0  0  0  0  0  0  0  0  0  0  0
   12.9312   -0.2400   23.5412 C   0  3  0  0  0  0  0  0  0  0  0  0
   13.3867   -0.8513   22.8194 H   0  0  0  0  0  0  0  0  0  0  0  0
   11.5213   -2.0032   22.8909 H   0  0  0  0  0  0  0  0  0  0  0  0
    9.6346   -1.0315   22.7183 C   0  0  0  0  0  0  0  0  0  0  0  0
    9.0307   -0.1915   21.6215 C   0  3  0  0  0  0  0  0  0  0  0  0
    9.5918    0.6605   21.1686 H   0  0  0  0  0  0  0  0  0  0  0  0
    7.8198   -0.4553   21.2680 N   0  0  0  0  0  0  0  0  0  0  0  0
    7.0602    0.1017   20.3459 C   0  0  0  0  0  0  0  0  0  0  0  0
    7.4173    0.0526   18.6452 S   0  0  0  0  0  0  0  0  0  0  0  0
    5.5488    0.6292   17.3493 H   0  0  0  0  0  0  0  0  0  0  0  0
    5.8273    0.6311   18.3805 C   0  0  0  0  0  0  0  0  0  0  0  0
    5.1429    0.9643   19.4484 N   0  0  0  0  0  0  0  0  0  0  0  0
    5.8195    0.6588   20.5582 C   0  0  0  0  0  0  0  0  0  0  0  0
    5.4248    0.8228   21.5580 H   0  0  0  0  0  0  0  0  0  0  0  0
 20 21  1  0  0  0  0
 19 21  1  0  0  0  0
 21 22  2  0  0  0  0
 18 19  1  0  0  0  0
 22 23  1  0  0  0  0
 18 23  2  0  0  0  0
 17 18  1  0  0  0  0
 23 24  1  0  0  0  0
 15 16  1  0  0  0  0
 15 17  1  0  0  0  0
 14 15  1  0  0  0  0
  8 14  2  3  0  0  0
  7 14  1  0  0  0  0
 11 12  1  0  0  0  0
  8 13  1  0  0  0  0
  8  9  1  0  0  0  0
  6  7  1  0  0  0  0
 10 11  2  3  0  0  0
  5  6  2  3  0  0  0
  9 10  1  0  0  0  0
  2  5  1  0  0  0  0
  2  3  1  0  0  0  0
  1  2  1  0  0  0  0
  2  4  1  0  0  0  0
M  CHG  2  11   1  15   1
M  END
> <Shapegauss>
-209.252457

$$$$
