stable:False satoms:16 tatoms:24 sratio:0.6666666666666666
  -OEChem-08062408423D

 26 26  0     0  0  0  0  0  0999 V2000
    6.9041   -4.3247   27.0821 Cl  0  0  0  0  0  0  0  0  0  0  0  0
    8.5619   -4.0047   26.4952 C   0  0  0  0  0  0  0  0  0  0  0  0
    9.0650   -5.0215   26.4004 H   0  0  0  0  0  0  0  0  0  0  0  0
    9.0643   -3.3907   27.2958 H   0  0  0  0  0  0  0  0  0  0  0  0
    8.4782   -3.3206   25.2348 N   0  3  0  0  0  0  0  0  0  0  0  0
    9.4641   -2.8705   24.6593 C   0  0  0  0  0  0  0  0  0  0  0  0
    9.5101   -1.8264   23.9782 N   0  0  0  0  0  0  0  0  0  0  0  0
   11.3817   -1.4147   23.6283 C   0  0  0  0  0  0  0  0  0  0  0  0
   11.8379   -0.5437   24.5373 O   0  0  0  0  0  0  0  0  0  0  0  0
   13.0565    0.0420   24.5942 N   0  0  0  0  0  0  0  0  0  0  0  0
   13.5285   -0.6557   23.8636 C   0  0  0  0  0  2  0  0  0  0  0  0
   11.9450   -2.3075   23.3311 H   0  0  0  0  0  0  0  0  0  0  0  0
   10.1606   -1.1669   23.1104 C   0  0  0  0  0  0  0  0  0  0  0  0
    9.6288   -0.3393   21.9678 C   0  0  0  0  0  2  0  0  0  0  0  0
    8.3938   -0.5035   21.6383 N   0  0  0  0  0  0  0  0  0  0  0  0
    7.6814    0.0689   20.6883 C   0  0  0  0  0  0  0  0  0  0  0  0
    8.0117   -0.1178   18.9917 S   0  0  0  0  0  0  0  0  0  0  0  0
    6.1933    0.5606   17.6740 H   0  0  0  0  0  0  0  0  0  0  0  0
    6.4829    0.5974   18.7015 C   0  0  0  0  0  0  0  0  0  0  0  0
    5.8473    1.0603   19.7510 N   0  0  0  0  0  0  0  0  0  0  0  0
    6.5039    0.7573   20.8734 C   0  0  0  0  0  0  0  0  0  0  0  0
    6.1391    1.0195   21.8636 H   0  0  0  0  0  0  0  0  0  0  0  0
   10.3814   -3.4331   24.7515 H   0  0  0  0  0  0  0  0  0  0  0  0
    8.7015   -1.2867   24.2123 H   0  0  0  0  0  0  0  0  0  0  0  0
    7.8896   -0.2977   22.4770 H   0  0  0  0  0  0  0  0  0  0  0  0
    7.5804   -3.2066   24.8093 H   0  0  0  0  0  0  0  0  0  0  0  0
 18 19  1  0  0  0  0
 17 19  1  0  0  0  0
 19 20  2  0  0  0  0
 16 17  1  0  0  0  0
 20 21  1  0  0  0  0
 16 21  2  0  0  0  0
 15 16  1  0  0  0  0
 21 22  1  0  0  0  0
 14 15  1  0  0  0  0
 13 14  1  0  0  0  0
  8 13  2  3  0  0  0
  7 13  1  0  0  0  0
  8 12  1  0  0  0  0
  8  9  1  0  0  0  0
  6  7  1  0  0  0  0
 10 11  2  3  0  0  0
  5  6  2  3  0  0  0
  9 10  1  0  0  0  0
  2  5  1  0  0  0  0
  2  3  1  0  0  0  0
  1  2  1  0  0  0  0
  2  4  1  0  0  0  0
  6 23  1  0  0  0  0
  7 24  1  0  0  0  0
 15 25  1  0  0  0  0
  5 26  1  0  0  0  0
M  CHG  1   5   1
M  END
> <Chemgauss4>
-7.207799

$$$$
