stable:False satoms:16 tatoms:24 sratio:0.6666666666666666
  -OEChem-08062408413D

 26 26  0     0  0  0  0  0  0999 V2000
   -6.5628   -4.1509  -27.0940 Cl  0  0  0  0  0  0  0  0  0  0  0  0
   -8.2206   -3.8308  -26.5072 C   0  0  0  0  0  0  0  0  0  0  0  0
   -8.7237   -4.8476  -26.4123 H   0  0  0  0  0  0  0  0  0  0  0  0
   -8.7230   -3.2168  -27.3078 H   0  0  0  0  0  0  0  0  0  0  0  0
   -8.1369   -3.1467  -25.2467 N   0  3  0  0  0  0  0  0  0  0  0  0
   -9.1228   -2.6966  -24.6713 C   0  0  0  0  0  0  0  0  0  0  0  0
   -9.1689   -1.6525  -23.9901 N   0  0  0  0  0  0  0  0  0  0  0  0
  -11.0405   -1.2408  -23.6402 C   0  0  0  0  0  0  0  0  0  0  0  0
  -11.4966   -0.3698  -24.5493 O   0  0  0  0  0  0  0  0  0  0  0  0
  -12.7153    0.2159  -24.6061 N   0  0  0  0  0  0  0  0  0  0  0  0
  -13.1872   -0.4818  -23.8756 C   0  0  0  0  0  2  0  0  0  0  0  0
  -11.6037   -2.1336  -23.3430 H   0  0  0  0  0  0  0  0  0  0  0  0
   -9.8193   -0.9930  -23.1223 C   0  0  0  0  0  0  0  0  0  0  0  0
   -9.2876   -0.1654  -21.9797 C   0  0  0  0  0  2  0  0  0  0  0  0
   -8.0525   -0.3296  -21.6502 N   0  0  0  0  0  0  0  0  0  0  0  0
   -7.3402    0.2428  -20.7003 C   0  0  0  0  0  0  0  0  0  0  0  0
   -7.6704    0.0561  -19.0037 S   0  0  0  0  0  0  0  0  0  0  0  0
   -5.8520    0.7345  -17.6860 H   0  0  0  0  0  0  0  0  0  0  0  0
   -6.1417    0.7713  -18.7135 C   0  0  0  0  0  0  0  0  0  0  0  0
   -5.5060    1.2342  -19.7630 N   0  0  0  0  0  0  0  0  0  0  0  0
   -6.1626    0.9312  -20.8854 C   0  0  0  0  0  0  0  0  0  0  0  0
   -5.7979    1.1934  -21.8756 H   0  0  0  0  0  0  0  0  0  0  0  0
  -10.0401   -3.2592  -24.7634 H   0  0  0  0  0  0  0  0  0  0  0  0
   -8.3602   -1.1128  -24.2242 H   0  0  0  0  0  0  0  0  0  0  0  0
   -7.5483   -0.1238  -22.4889 H   0  0  0  0  0  0  0  0  0  0  0  0
   -7.2392   -3.0327  -24.8212 H   0  0  0  0  0  0  0  0  0  0  0  0
 18 19  1  0  0  0  0
 17 19  1  0  0  0  0
 19 20  2  0  0  0  0
 16 17  1  0  0  0  0
 20 21  1  0  0  0  0
 16 21  2  0  0  0  0
 15 16  1  0  0  0  0
 21 22  1  0  0  0  0
 14 15  1  0  0  0  0
 13 14  1  0  0  0  0
  8 13  2  3  0  0  0
  7 13  1  0  0  0  0
  8 12  1  0  0  0  0
  8  9  1  0  0  0  0
  6  7  1  0  0  0  0
 10 11  2  3  0  0  0
  5  6  2  3  0  0  0
  9 10  1  0  0  0  0
  2  5  1  0  0  0  0
  2  3  1  0  0  0  0
  1  2  1  0  0  0  0
  2  4  1  0  0  0  0
  6 23  1  0  0  0  0
  7 24  1  0  0  0  0
 15 25  1  0  0  0  0
  5 26  1  0  0  0  0
M  CHG  1   5   1
M  END
> <Chemgauss4>
-7.255464

$$$$
