stable:False satoms:7 tatoms:24 sratio:0.2916666666666667
  -OEChem-08062413413D

 45 46  0     1  0  0  0  0  0999 V2000
   -6.7539   -5.2529  -25.9372 C   0  0  0  0  0  0  0  0  0  0  0  0
   -8.2212   -4.6430  -25.8426 S   0  0  0  0  0  0  0  0  0  0  0  0
   -9.2102   -5.6923  -25.7578 O   0  0  0  0  0  0  0  0  0  0  0  0
   -8.4812   -3.7894  -26.9631 O   0  0  0  0  0  0  0  0  0  0  0  0
   -8.2148   -3.7700  -24.4335 N   0  0  0  0  0  0  0  0  0  0  0  0
   -8.9822   -3.0418  -24.0160 C   0  0  0  0  0  0  0  0  0  0  0  0
   -9.4435   -2.0090  -23.4585 C   0  0  0  0  0  0  0  0  0  0  0  0
  -10.2770   -1.0549  -23.3870 C   0  0  2  0  0  0  0  0  0  0  0  0
  -10.8390   -0.0839  -24.5203 C   0  0  0  0  0  0  0  0  0  0  0  0
  -11.8212    0.3013  -24.5958 C   0  0  0  0  0  0  0  0  0  0  0  0
  -13.0239   -0.0419  -23.8591 C   0  0  0  0  0  0  0  0  0  0  0  0
  -12.7159   -1.0438  -22.9499 C   0  0  0  0  0  0  0  0  0  0  0  0
  -11.9296   -1.5741  -22.6913 C   0  0  0  0  0  0  0  0  0  0  0  0
   -9.6404   -0.6120  -22.4560 C   0  0  3  0  0  0  0  0  0  0  0  0
   -9.0526    0.0700  -21.4579 C   0  0  0  0  0  0  0  0  0  0  0  0
   -9.5410    1.0661  -21.1924 O   0  0  0  0  0  0  0  0  0  0  0  0
   -8.0230   -0.6051  -21.0399 N   0  0  0  0  0  0  0  0  0  0  0  0
   -7.3490   -0.1222  -20.1537 C   0  0  0  0  0  0  0  0  0  0  0  0
   -7.3940    0.1071  -18.9173 C   0  0  0  0  0  0  0  0  0  0  0  0
   -7.0515    0.4366  -17.7447 N   0  0  0  0  0  0  0  0  0  0  0  0
   -5.9106    0.8521  -18.1836 C   0  0  0  0  0  0  0  0  0  0  0  0
   -5.3588    0.8654  -19.3496 C   0  0  0  0  0  0  0  0  0  0  0  0
   -5.8197    0.4361  -20.4789 C   0  0  0  0  0  0  0  0  0  0  0  0
   -5.2705    0.4278  -21.7874 C   0  0  0  0  0  0  0  0  0  0  0  0
   -6.6650   -5.8553  -26.8533 H   0  0  0  0  0  0  0  0  0  0  0  0
   -6.0182   -4.4355  -25.9632 H   0  0  0  0  0  0  0  0  0  0  0  0
   -6.5642   -5.8892  -25.0602 H   0  0  0  0  0  0  0  0  0  0  0  0
   -7.3730   -3.2326  -24.4847 H   0  0  0  0  0  0  0  0  0  0  0  0
   -9.8971   -3.5708  -24.2384 H   0  0  0  0  0  0  0  0  0  0  0  0
  -11.1957   -1.4877  -22.9644 H   0  0  0  0  0  0  0  0  0  0  0  0
  -10.1436    0.2116  -25.2920 H   0  0  0  0  0  0  0  0  0  0  0  0
  -11.9498    1.0734  -25.3398 H   0  0  0  0  0  0  0  0  0  0  0  0
  -13.7962   -0.3990  -24.5564 H   0  0  0  0  0  0  0  0  0  0  0  0
  -13.3954    0.8438  -23.3228 H   0  0  0  0  0  0  0  0  0  0  0  0
  -13.5804   -1.3169  -22.3630 H   0  0  0  0  0  0  0  0  0  0  0  0
  -12.0109   -2.3143  -21.9091 H   0  0  0  0  0  0  0  0  0  0  0  0
  -10.9844   -1.4165  -23.1894 H   0  0  0  0  0  0  0  0  0  0  0  0
  -10.2407   -1.1900  -21.7380 H   0  0  0  0  0  0  0  0  0  0  0  0
   -7.7937   -1.4942  -21.4361 H   0  0  0  0  0  0  0  0  0  0  0  0
   -8.4246   -0.1558  -18.7296 H   0  0  0  0  0  0  0  0  0  0  0  0
   -5.2867    1.2783  -17.4119 H   0  0  0  0  0  0  0  0  0  0  0  0
   -4.3696    1.2973  -19.3881 H   0  0  0  0  0  0  0  0  0  0  0  0
   -4.7306   -0.5161  -21.9530 H   0  0  0  0  0  0  0  0  0  0  0  0
   -6.0807    0.5210  -22.5256 H   0  0  0  0  0  0  0  0  0  0  0  0
   -4.5746    1.2725  -21.8982 H   0  0  0  0  0  0  0  0  0  0  0  0
 20 21  2  0  0  0  0
 19 20  1  0  0  0  0
 21 22  1  0  0  0  0
 18 19  2  0  0  0  0
 22 23  2  0  0  0  0
 18 23  1  0  0  0  0
 17 18  1  0  0  0  0
 23 24  1  0  0  0  0
 15 16  2  0  0  0  0
 15 17  1  0  0  0  0
 14 15  1  0  0  0  0
  8 14  1  0  0  0  0
  7 14  1  0  0  0  0
 12 13  2  0  0  0  0
 11 12  1  0  0  0  0
  7  8  1  0  0  0  0
  8  9  1  0  0  0  0
  6  7  2  0  0  0  0
 10 11  1  0  0  0  0
  5  6  1  0  0  0  0
  9 10  2  0  0  0  0
  2  5  1  0  0  0  0
  2  3  2  0  0  0  0
  1  2  1  0  0  0  0
  2  4  2  0  0  0  0
  1 25  1  0  0  0  0
  1 26  1  0  0  0  0
  1 27  1  0  0  0  0
  5 28  1  0  0  0  0
  6 29  1  0  0  0  0
  8 30  1  0  0  0  0
  9 31  1  0  0  0  0
 10 32  1  0  0  0  0
 11 33  1  0  0  0  0
 11 34  1  0  0  0  0
 12 35  1  0  0  0  0
 13 36  1  0  0  0  0
 13 37  1  0  0  0  0
 14 38  1  0  0  0  0
 17 39  1  0  0  0  0
 19 40  1  0  0  0  0
 21 41  1  0  0  0  0
 22 42  1  0  0  0  0
 24 43  1  0  0  0  0
 24 44  1  0  0  0  0
 24 45  1  0  0  0  0
M  END
> <Chemgauss4>
-12.961618

$$$$
