stable:False satoms:7 tatoms:24 sratio:0.2916666666666667
  -OEChem-08062413413D

 45 46  0     1  0  0  0  0  0999 V2000
    6.5863   -5.2898   25.9869 C   0  0  0  0  0  0  0  0  0  0  0  0
    8.0536   -4.6799   25.8923 S   0  0  0  0  0  0  0  0  0  0  0  0
    9.0426   -5.7292   25.8075 O   0  0  0  0  0  0  0  0  0  0  0  0
    8.3135   -3.8263   27.0128 O   0  0  0  0  0  0  0  0  0  0  0  0
    8.0472   -3.8069   24.4831 N   0  0  0  0  0  0  0  0  0  0  0  0
    8.8146   -3.0787   24.0657 C   0  0  0  0  0  0  0  0  0  0  0  0
    9.2759   -2.0460   23.5082 C   0  0  0  0  0  0  0  0  0  0  0  0
   10.1093   -1.0918   23.4367 C   0  0  2  0  0  0  0  0  0  0  0  0
   10.6714   -0.1208   24.5700 C   0  0  0  0  0  0  0  0  0  0  0  0
   11.6536    0.2644   24.6454 C   0  0  0  0  0  0  0  0  0  0  0  0
   12.8563   -0.0788   23.9088 C   0  0  0  0  0  0  0  0  0  0  0  0
   12.5483   -1.0807   22.9996 C   0  0  0  0  0  0  0  0  0  0  0  0
   11.7620   -1.6110   22.7410 C   0  0  0  0  0  0  0  0  0  0  0  0
    9.4728   -0.6489   22.5057 C   0  0  3  0  0  0  0  0  0  0  0  0
    8.8850    0.0331   21.5076 C   0  0  0  0  0  0  0  0  0  0  0  0
    9.3734    1.0292   21.2421 O   0  0  0  0  0  0  0  0  0  0  0  0
    7.8553   -0.6420   21.0895 N   0  0  0  0  0  0  0  0  0  0  0  0
    7.1813   -0.1592   20.2034 C   0  0  0  0  0  0  0  0  0  0  0  0
    7.2264    0.0702   18.9670 C   0  0  0  0  0  0  0  0  0  0  0  0
    6.8839    0.3997   17.7944 N   0  0  0  0  0  0  0  0  0  0  0  0
    5.7430    0.8152   18.2333 C   0  0  0  0  0  0  0  0  0  0  0  0
    5.1911    0.8285   19.3993 C   0  0  0  0  0  0  0  0  0  0  0  0
    5.6521    0.3992   20.5285 C   0  0  0  0  0  0  0  0  0  0  0  0
    5.1029    0.3909   21.8371 C   0  0  0  0  0  0  0  0  0  0  0  0
    6.4974   -5.8922   26.9030 H   0  0  0  0  0  0  0  0  0  0  0  0
    5.8506   -4.4724   26.0129 H   0  0  0  0  0  0  0  0  0  0  0  0
    6.3966   -5.9261   25.1099 H   0  0  0  0  0  0  0  0  0  0  0  0
    7.2054   -3.2695   24.5344 H   0  0  0  0  0  0  0  0  0  0  0  0
    9.7295   -3.6078   24.2881 H   0  0  0  0  0  0  0  0  0  0  0  0
   11.0280   -1.5246   23.0140 H   0  0  0  0  0  0  0  0  0  0  0  0
    9.9760    0.1746   25.3417 H   0  0  0  0  0  0  0  0  0  0  0  0
   11.7822    1.0365   25.3895 H   0  0  0  0  0  0  0  0  0  0  0  0
   13.6286   -0.4359   24.6061 H   0  0  0  0  0  0  0  0  0  0  0  0
   13.2278    0.8068   23.3725 H   0  0  0  0  0  0  0  0  0  0  0  0
   13.4128   -1.3538   22.4127 H   0  0  0  0  0  0  0  0  0  0  0  0
   11.8433   -2.3512   21.9588 H   0  0  0  0  0  0  0  0  0  0  0  0
   10.8167   -1.4534   23.2391 H   0  0  0  0  0  0  0  0  0  0  0  0
   10.0730   -1.2270   21.7876 H   0  0  0  0  0  0  0  0  0  0  0  0
    7.6261   -1.5311   21.4858 H   0  0  0  0  0  0  0  0  0  0  0  0
    8.2569   -0.1927   18.7793 H   0  0  0  0  0  0  0  0  0  0  0  0
    5.1191    1.2414   17.4616 H   0  0  0  0  0  0  0  0  0  0  0  0
    4.2020    1.2604   19.4377 H   0  0  0  0  0  0  0  0  0  0  0  0
    4.5629   -0.5530   22.0027 H   0  0  0  0  0  0  0  0  0  0  0  0
    5.9131    0.4841   22.5753 H   0  0  0  0  0  0  0  0  0  0  0  0
    4.4070    1.2356   21.9479 H   0  0  0  0  0  0  0  0  0  0  0  0
 20 21  2  0  0  0  0
 19 20  1  0  0  0  0
 21 22  1  0  0  0  0
 18 19  2  0  0  0  0
 22 23  2  0  0  0  0
 18 23  1  0  0  0  0
 17 18  1  0  0  0  0
 23 24  1  0  0  0  0
 15 16  2  0  0  0  0
 15 17  1  0  0  0  0
 14 15  1  0  0  0  0
  8 14  1  0  0  0  0
  7 14  1  0  0  0  0
 12 13  2  0  0  0  0
 11 12  1  0  0  0  0
  7  8  1  0  0  0  0
  8  9  1  0  0  0  0
  6  7  2  0  0  0  0
 10 11  1  0  0  0  0
  5  6  1  0  0  0  0
  9 10  2  0  0  0  0
  2  5  1  0  0  0  0
  2  3  2  0  0  0  0
  1  2  1  0  0  0  0
  2  4  2  0  0  0  0
  1 25  1  0  0  0  0
  1 26  1  0  0  0  0
  1 27  1  0  0  0  0
  5 28  1  0  0  0  0
  6 29  1  0  0  0  0
  8 30  1  0  0  0  0
  9 31  1  0  0  0  0
 10 32  1  0  0  0  0
 11 33  1  0  0  0  0
 11 34  1  0  0  0  0
 12 35  1  0  0  0  0
 13 36  1  0  0  0  0
 13 37  1  0  0  0  0
 14 38  1  0  0  0  0
 17 39  1  0  0  0  0
 19 40  1  0  0  0  0
 21 41  1  0  0  0  0
 22 42  1  0  0  0  0
 24 43  1  0  0  0  0
 24 44  1  0  0  0  0
 24 45  1  0  0  0  0
M  END
> <Chemgauss4>
-13.011729

$$$$
