MODEL 1
REMARK VINA RESULT:    -6.438      0.000      0.000
REMARK INTER + INTRA:         -11.808
REMARK INTER:                 -10.202
REMARK INTRA:                  -1.607
REMARK UNBOUND:                -1.607
REMARK  10 active torsions:
REMARK  status: ('A' for Active; 'I' for Inactive)
REMARK    1  A    between atoms: S_2  and  N_5 
REMARK    2  A    between atoms: C_7  and  C_8 
REMARK    3  A    between atoms: C_8  and  C_9 
REMARK    4  A    between atoms: C_9  and  C_15 
REMARK    5  A    between atoms: C_9  and  C_10 
REMARK    6  A    between atoms: C_10  and  C_11 
REMARK    7  A    between atoms: C_11  and  C_12 
REMARK    8  A    between atoms: C_12  and  C_13 
REMARK    9  A    between atoms: C_15  and  C_16 
REMARK       I    between atoms: C_16  and  N_18 
REMARK   10  A    between atoms: N_18  and  C_20 
ROOT
HETATM    1  C   UNL     1       9.282  -1.840  23.156  1.00  0.00     0.061 C 
ENDROOT
BRANCH   1   2
HETATM    2  C   UNL     1       8.657  -2.875  23.214  1.00  0.00    -0.090 C 
BRANCH   2   3
HETATM    3  C   UNL     1       7.865  -3.711  22.959  1.00  0.00     0.157 C 
HETATM    4  N   UNL     1       7.459  -4.683  22.434  1.00  0.00    -0.288 N 
ATOM      5  HN  UNL     1       8.070  -5.499  22.396  1.00  0.00     0.178 HD
BRANCH   4   6
HETATM    6  S   UNL     1       5.987  -4.803  21.766  1.00  0.00     0.226 S 
HETATM    7  C   UNL     1       5.036  -5.640  23.075  1.00  0.00     0.186 C 
HETATM    8  O   UNL     1       5.396  -3.531  21.574  1.00  0.00    -0.206 OA
HETATM    9  O   UNL     1       5.948  -5.676  20.653  1.00  0.00    -0.206 OA
ENDBRANCH   4   6
ENDBRANCH   2   3
ENDBRANCH   1   2
BRANCH   1  10
HETATM   10  C   UNL     1       8.763  -1.104  22.370  1.00  0.00    -0.035 C 
BRANCH  10  11
HETATM   11  C   UNL     1       8.327  -0.498  21.289  1.00  0.00     0.294 C 
HETATM   12  O   UNL     1       9.080   0.125  20.703  1.00  0.00    -0.258 OA
HETATM   13  N   UNL     1       7.017  -0.728  21.104  1.00  0.00    -0.314 N 
ATOM     14  HN  UNL     1       6.472  -1.296  21.754  1.00  0.00     0.170 HD
BRANCH  13  15
HETATM   15  C   UNL     1       6.508  -0.215  20.103  1.00  0.00     0.068 A 
HETATM   16  C   UNL     1       6.194  -0.575  18.861  1.00  0.00     0.118 A 
HETATM   17  N   UNL     1       5.686  -0.355  17.752  1.00  0.00    -0.373 N 
HETATM   18  C   UNL     1       5.321   0.862  18.029  1.00  0.00     0.089 A 
ATOM     19  HN  UNL     1       5.589  -0.928  16.914  1.00  0.00     0.164 HD
HETATM   20  C   UNL     1       5.383   1.508  18.985  1.00  0.00     0.038 A 
HETATM   21  C   UNL     1       5.903   1.234  20.173  1.00  0.00     0.040 A 
HETATM   22 BR   UNL     1       5.973   2.173  21.524  1.00  0.00    -0.049 Br
ENDBRANCH  13  15
ENDBRANCH  10  11
ENDBRANCH   1  10
BRANCH   1  23
HETATM   23  C   UNL     1      10.364  -1.072  24.147  1.00  0.00     0.029 C 
BRANCH  23  24
HETATM   24  C   UNL     1      10.288  -0.233  24.740  1.00  0.00     0.002 C 
BRANCH  24  25
HETATM   25  C   UNL     1      11.036   1.006  24.626  1.00  0.00    -0.001 C 
BRANCH  25  26
HETATM   26  C   UNL     1      10.530   1.862  23.973  1.00  0.00    -0.010 C 
HETATM   27  C   UNL     1      10.389   2.361  23.120  1.00  0.00     0.011 C 
ENDBRANCH  25  26
ENDBRANCH  24  25
ENDBRANCH  23  24
ENDBRANCH   1  23
TORSDOF 10
ENDMDL
MODEL 2
REMARK VINA RESULT:    -5.990      2.098      2.347
REMARK INTER + INTRA:         -11.099
REMARK INTER:                 -10.130
REMARK INTRA:                  -0.969
REMARK UNBOUND:                -1.607
REMARK  10 active torsions:
REMARK  status: ('A' for Active; 'I' for Inactive)
REMARK    1  A    between atoms: S_2  and  N_5 
REMARK    2  A    between atoms: C_7  and  C_8 
REMARK    3  A    between atoms: C_8  and  C_9 
REMARK    4  A    between atoms: C_9  and  C_15 
REMARK    5  A    between atoms: C_9  and  C_10 
REMARK    6  A    between atoms: C_10  and  C_11 
REMARK    7  A    between atoms: C_11  and  C_12 
REMARK    8  A    between atoms: C_12  and  C_13 
REMARK    9  A    between atoms: C_15  and  C_16 
REMARK       I    between atoms: C_16  and  N_18 
REMARK   10  A    between atoms: N_18  and  C_20 
ROOT
HETATM    1  C   UNL     1       9.370  -1.418  23.357  1.00  0.00     0.061 C 
ENDROOT
BRANCH   1   2
HETATM    2  C   UNL     1       8.775  -2.444  23.601  1.00  0.00    -0.090 C 
BRANCH   2   3
HETATM    3  C   UNL     1       8.495  -3.473  24.102  1.00  0.00     0.157 C 
HETATM    4  N   UNL     1       7.986  -4.533  24.172  1.00  0.00    -0.288 N 
ATOM      5  HN  UNL     1       8.039  -5.145  23.358  1.00  0.00     0.178 HD
BRANCH   4   6
HETATM    6  S   UNL     1       7.205  -5.076  25.484  1.00  0.00     0.226 S 
HETATM    7  C   UNL     1       6.719  -3.529  26.313  1.00  0.00     0.186 C 
HETATM    8  O   UNL     1       6.011  -5.753  25.137  1.00  0.00    -0.206 OA
HETATM    9  O   UNL     1       8.051  -5.747  26.400  1.00  0.00    -0.206 OA
ENDBRANCH   4   6
ENDBRANCH   2   3
ENDBRANCH   1   2
BRANCH   1  10
HETATM   10  C   UNL     1       9.079  -1.039  22.262  1.00  0.00    -0.035 C 
BRANCH  10  11
HETATM   11  C   UNL     1       8.549  -0.435  21.222  1.00  0.00     0.294 C 
HETATM   12  O   UNL     1       9.232   0.241  20.609  1.00  0.00    -0.258 OA
HETATM   13  N   UNL     1       7.244  -0.734  21.107  1.00  0.00    -0.314 N 
ATOM     14  HN  UNL     1       6.770  -1.344  21.773  1.00  0.00     0.170 HD
BRANCH  13  15
HETATM   15  C   UNL     1       6.650  -0.229  20.149  1.00  0.00     0.068 A 
HETATM   16  C   UNL     1       6.267  -0.586  18.926  1.00  0.00     0.118 A 
HETATM   17  N   UNL     1       5.678  -0.373  17.856  1.00  0.00    -0.373 N 
HETATM   18  C   UNL     1       5.288   0.826  18.174  1.00  0.00     0.089 A 
ATOM     19  HN  UNL     1       5.546  -0.940  17.019  1.00  0.00     0.164 HD
HETATM   20  C   UNL     1       5.390   1.463  19.133  1.00  0.00     0.038 A 
HETATM   21  C   UNL     1       5.998   1.195  20.280  1.00  0.00     0.040 A 
HETATM   22 BR   UNL     1       6.124   2.121  21.636  1.00  0.00    -0.049 Br
ENDBRANCH  13  15
ENDBRANCH  10  11
ENDBRANCH   1  10
BRANCH   1  23
HETATM   23  C   UNL     1      10.113  -0.253  24.270  1.00  0.00     0.029 C 
BRANCH  23  24
HETATM   24  C   UNL     1      11.000  -0.242  24.793  1.00  0.00     0.002 C 
BRANCH  24  25
HETATM   25  C   UNL     1      12.253   0.382  24.405  1.00  0.00    -0.001 C 
BRANCH  25  26
HETATM   26  C   UNL     1      13.112  -0.357  24.042  1.00  0.00    -0.010 C 
HETATM   27  C   UNL     1      13.446  -1.245  23.730  1.00  0.00     0.011 C 
ENDBRANCH  25  26
ENDBRANCH  24  25
ENDBRANCH  23  24
ENDBRANCH   1  23
TORSDOF 10
ENDMDL
MODEL 3
REMARK VINA RESULT:    -5.929      4.431      6.663
REMARK INTER + INTRA:         -11.001
REMARK INTER:                  -9.808
REMARK INTRA:                  -1.193
REMARK UNBOUND:                -1.607
REMARK  10 active torsions:
REMARK  status: ('A' for Active; 'I' for Inactive)
REMARK    1  A    between atoms: S_2  and  N_5 
REMARK    2  A    between atoms: C_7  and  C_8 
REMARK    3  A    between atoms: C_8  and  C_9 
REMARK    4  A    between atoms: C_9  and  C_15 
REMARK    5  A    between atoms: C_9  and  C_10 
REMARK    6  A    between atoms: C_10  and  C_11 
REMARK    7  A    between atoms: C_11  and  C_12 
REMARK    8  A    between atoms: C_12  and  C_13 
REMARK    9  A    between atoms: C_15  and  C_16 
REMARK       I    between atoms: C_16  and  N_18 
REMARK   10  A    between atoms: N_18  and  C_20 
ROOT
HETATM    1  C   UNL     1       7.685  -4.285  24.771  1.00  0.00     0.061 C 
ENDROOT
BRANCH   1   2
HETATM    2  C   UNL     1       7.816  -4.941  25.780  1.00  0.00    -0.090 C 
BRANCH   2   3
HETATM    3  C   UNL     1       7.671  -5.315  26.888  1.00  0.00     0.157 C 
HETATM    4  N   UNL     1       7.712  -6.086  27.777  1.00  0.00    -0.288 N 
ATOM      5  HN  UNL     1       8.556  -6.649  27.885  1.00  0.00     0.178 HD
BRANCH   4   6
HETATM    6  S   UNL     1       6.509  -6.307  28.840  1.00  0.00     0.226 S 
HETATM    7  C   UNL     1       5.051  -6.423  27.754  1.00  0.00     0.186 C 
HETATM    8  O   UNL     1       6.626  -7.547  29.510  1.00  0.00    -0.206 OA
HETATM    9  O   UNL     1       6.278  -5.179  29.664  1.00  0.00    -0.206 OA
ENDBRANCH   4   6
ENDBRANCH   2   3
ENDBRANCH   1   2
BRANCH   1  10
HETATM   10  C   UNL     1       8.092  -3.177  24.960  1.00  0.00    -0.035 C 
BRANCH  10  11
HETATM   11  C   UNL     1       8.828  -2.100  25.117  1.00  0.00     0.294 C 
HETATM   12  O   UNL     1       8.763  -1.567  26.122  1.00  0.00    -0.258 OA
HETATM   13  N   UNL     1       9.518  -1.823  23.998  1.00  0.00    -0.314 N 
ATOM     14  HN  UNL     1       9.436  -2.397  23.158  1.00  0.00     0.170 HD
BRANCH  13  15
HETATM   15  C   UNL     1      10.257  -0.835  24.042  1.00  0.00     0.068 A 
HETATM   16  C   UNL     1      11.527  -0.566  24.336  1.00  0.00     0.118 A 
HETATM   17  N   UNL     1      12.491   0.209  24.421  1.00  0.00    -0.373 N 
HETATM   18  C   UNL     1      11.835   1.257  24.019  1.00  0.00     0.089 A 
ATOM     19  HN  UNL     1      13.460   0.072  24.708  1.00  0.00     0.164 HD
HETATM   20  C   UNL     1      10.753   1.419  23.649  1.00  0.00     0.038 A 
HETATM   21  C   UNL     1       9.748   0.562  23.536  1.00  0.00     0.040 A 
HETATM   22 BR   UNL     1       8.213   0.819  22.998  1.00  0.00    -0.049 Br
ENDBRANCH  13  15
ENDBRANCH  10  11
ENDBRANCH   1  10
BRANCH   1  23
HETATM   23  C   UNL     1       7.490  -4.639  23.165  1.00  0.00     0.029 C 
BRANCH  23  24
HETATM   24  C   UNL     1       7.096  -5.455  22.676  1.00  0.00     0.002 C 
BRANCH  24  25
HETATM   25  C   UNL     1       5.752  -5.613  22.151  1.00  0.00    -0.001 C 
BRANCH  25  26
HETATM   26  C   UNL     1       4.878  -5.645  22.958  1.00  0.00    -0.010 C 
HETATM   27  C   UNL     1       3.919  -5.584  23.231  1.00  0.00     0.011 C 
ENDBRANCH  25  26
ENDBRANCH  24  25
ENDBRANCH  23  24
ENDBRANCH   1  23
TORSDOF 10
ENDMDL
MODEL 4
REMARK VINA RESULT:    -5.824      3.066      6.083
REMARK INTER + INTRA:         -10.836
REMARK INTER:                  -9.696
REMARK INTRA:                  -1.140
REMARK UNBOUND:                -1.607
REMARK  10 active torsions:
REMARK  status: ('A' for Active; 'I' for Inactive)
REMARK    1  A    between atoms: S_2  and  N_5 
REMARK    2  A    between atoms: C_7  and  C_8 
REMARK    3  A    between atoms: C_8  and  C_9 
REMARK    4  A    between atoms: C_9  and  C_15 
REMARK    5  A    between atoms: C_9  and  C_10 
REMARK    6  A    between atoms: C_10  and  C_11 
REMARK    7  A    between atoms: C_11  and  C_12 
REMARK    8  A    between atoms: C_12  and  C_13 
REMARK    9  A    between atoms: C_15  and  C_16 
REMARK       I    between atoms: C_16  and  N_18 
REMARK   10  A    between atoms: N_18  and  C_20 
ROOT
HETATM    1  C   UNL     1       9.728  -1.457  22.913  1.00  0.00     0.061 C 
ENDROOT
BRANCH   1   2
HETATM    2  C   UNL     1       8.910  -1.034  22.127  1.00  0.00    -0.090 C 
BRANCH   2   3
HETATM    3  C   UNL     1       8.419  -0.374  21.283  1.00  0.00     0.157 C 
HETATM    4  N   UNL     1       7.789   0.520  20.846  1.00  0.00    -0.288 N 
ATOM      5  HN  UNL     1       7.939   1.449  21.238  1.00  0.00     0.178 HD
BRANCH   4   6
HETATM    6  S   UNL     1       6.697   0.362  19.659  1.00  0.00     0.226 S 
HETATM    7  C   UNL     1       5.476   1.644  20.084  1.00  0.00     0.186 C 
HETATM    8  O   UNL     1       7.242   0.709  18.399  1.00  0.00    -0.206 OA
HETATM    9  O   UNL     1       5.991  -0.865  19.709  1.00  0.00    -0.206 OA
ENDBRANCH   4   6
ENDBRANCH   2   3
ENDBRANCH   1   2
BRANCH   1  10
HETATM   10  C   UNL     1       9.207  -2.243  23.647  1.00  0.00    -0.035 C 
BRANCH  10  11
HETATM   11  C   UNL     1       8.542  -2.837  24.611  1.00  0.00     0.294 C 
HETATM   12  O   UNL     1       8.237  -2.198  25.504  1.00  0.00    -0.258 OA
HETATM   13  N   UNL     1       8.373  -4.143  24.344  1.00  0.00    -0.314 N 
ATOM     14  HN  UNL     1       8.744  -4.572  23.496  1.00  0.00     0.170 HD
BRANCH  13  15
HETATM   15  C   UNL     1       7.744  -4.795  25.183  1.00  0.00     0.068 A 
HETATM   16  C   UNL     1       7.970  -5.361  26.365  1.00  0.00     0.118 A 
HETATM   17  N   UNL     1       7.596  -5.969  27.379  1.00  0.00    -0.373 N 
HETATM   18  C   UNL     1       6.357  -6.079  26.999  1.00  0.00     0.089 A 
ATOM     19  HN  UNL     1       8.088  -6.276  28.218  1.00  0.00     0.164 HD
HETATM   20  C   UNL     1       5.776  -5.699  26.075  1.00  0.00     0.038 A 
HETATM   21  C   UNL     1       6.197  -5.019  25.018  1.00  0.00     0.040 A 
HETATM   22 BR   UNL     1       5.344  -4.482  23.715  1.00  0.00    -0.049 Br
ENDBRANCH  13  15
ENDBRANCH  10  11
ENDBRANCH   1  10
BRANCH   1  23
HETATM   23  C   UNL     1      11.382  -1.534  22.948  1.00  0.00     0.029 C 
BRANCH  23  24
HETATM   24  C   UNL     1      12.101  -0.878  23.284  1.00  0.00     0.002 C 
BRANCH  24  25
HETATM   25  C   UNL     1      12.044  -0.017  24.451  1.00  0.00    -0.001 C 
BRANCH  25  26
HETATM   26  C   UNL     1      11.652   1.090  24.264  1.00  0.00    -0.010 C 
HETATM   27  C   UNL     1      11.389   1.850  23.672  1.00  0.00     0.011 C 
ENDBRANCH  25  26
ENDBRANCH  24  25
ENDBRANCH  23  24
ENDBRANCH   1  23
TORSDOF 10
ENDMDL
MODEL 5
REMARK VINA RESULT:    -5.753      3.434      6.033
REMARK INTER + INTRA:         -10.723
REMARK INTER:                  -9.258
REMARK INTRA:                  -1.465
REMARK UNBOUND:                -1.607
REMARK  10 active torsions:
REMARK  status: ('A' for Active; 'I' for Inactive)
REMARK    1  A    between atoms: S_2  and  N_5 
REMARK    2  A    between atoms: C_7  and  C_8 
REMARK    3  A    between atoms: C_8  and  C_9 
REMARK    4  A    between atoms: C_9  and  C_15 
REMARK    5  A    between atoms: C_9  and  C_10 
REMARK    6  A    between atoms: C_10  and  C_11 
REMARK    7  A    between atoms: C_11  and  C_12 
REMARK    8  A    between atoms: C_12  and  C_13 
REMARK    9  A    between atoms: C_15  and  C_16 
REMARK       I    between atoms: C_16  and  N_18 
REMARK   10  A    between atoms: N_18  and  C_20 
ROOT
HETATM    1  C   UNL     1      10.065  -0.211  21.959  1.00  0.00     0.061 C 
ENDROOT
BRANCH   1   2
HETATM    2  C   UNL     1       9.217   0.050  21.137  1.00  0.00    -0.090 C 
BRANCH   2   3
HETATM    3  C   UNL     1       8.210   0.444  20.666  1.00  0.00     0.157 C 
HETATM    4  N   UNL     1       7.043   0.570  20.573  1.00  0.00    -0.288 N 
ATOM      5  HN  UNL     1       6.511   0.754  21.423  1.00  0.00     0.178 HD
BRANCH   4   6
HETATM    6  S   UNL     1       6.231   0.466  19.174  1.00  0.00     0.226 S 
HETATM    7  C   UNL     1       4.829   1.593  19.458  1.00  0.00     0.186 C 
HETATM    8  O   UNL     1       6.979   0.997  18.097  1.00  0.00    -0.206 OA
HETATM    9  O   UNL     1       5.654  -0.808  18.956  1.00  0.00    -0.206 OA
ENDBRANCH   4   6
ENDBRANCH   2   3
ENDBRANCH   1   2
BRANCH   1  10
HETATM   10  C   UNL     1      10.506   0.802  22.414  1.00  0.00    -0.035 C 
BRANCH  10  11
HETATM   11  C   UNL     1      10.913   1.775  23.198  1.00  0.00     0.294 C 
HETATM   12  O   UNL     1      11.299   1.486  24.230  1.00  0.00    -0.258 OA
HETATM   13  N   UNL     1      10.758   2.969  22.600  1.00  0.00    -0.314 N 
ATOM     14  HN  UNL     1      10.359   3.056  21.666  1.00  0.00     0.170 HD
BRANCH  13  15
HETATM   15  C   UNL     1      11.125   3.955  23.246  1.00  0.00     0.068 A 
HETATM   16  C   UNL     1      12.251   4.633  23.457  1.00  0.00     0.118 A 
HETATM   17  N   UNL     1      12.884   5.583  23.941  1.00  0.00    -0.373 N 
HETATM   18  C   UNL     1      11.857   6.118  24.535  1.00  0.00     0.089 A 
ATOM     19  HN  UNL     1      13.866   5.851  23.892  1.00  0.00     0.164 HD
HETATM   20  C   UNL     1      10.733   5.852  24.562  1.00  0.00     0.038 A 
HETATM   21  C   UNL     1      10.075   4.845  24.004  1.00  0.00     0.040 A 
HETATM   22 BR   UNL     1       8.468   4.492  24.055  1.00  0.00    -0.049 Br
ENDBRANCH  13  15
ENDBRANCH  10  11
ENDBRANCH   1  10
BRANCH   1  23
HETATM   23  C   UNL     1      10.443  -1.546  22.865  1.00  0.00     0.029 C 
BRANCH  23  24
HETATM   24  C   UNL     1       9.863  -2.224  23.379  1.00  0.00     0.002 C 
BRANCH  24  25
HETATM   25  C   UNL     1       8.851  -1.947  24.382  1.00  0.00    -0.001 C 
BRANCH  25  26
HETATM   26  C   UNL     1       9.174  -1.211  25.259  1.00  0.00    -0.010 C 
HETATM   27  C   UNL     1       9.067  -0.814  26.170  1.00  0.00     0.011 C 
ENDBRANCH  25  26
ENDBRANCH  24  25
ENDBRANCH  23  24
ENDBRANCH   1  23
TORSDOF 10
ENDMDL
MODEL 6
REMARK VINA RESULT:    -5.710     14.795     16.443
REMARK INTER + INTRA:         -10.655
REMARK INTER:                  -9.283
REMARK INTRA:                  -1.372
REMARK UNBOUND:                -1.607
REMARK  10 active torsions:
REMARK  status: ('A' for Active; 'I' for Inactive)
REMARK    1  A    between atoms: S_2  and  N_5 
REMARK    2  A    between atoms: C_7  and  C_8 
REMARK    3  A    between atoms: C_8  and  C_9 
REMARK    4  A    between atoms: C_9  and  C_15 
REMARK    5  A    between atoms: C_9  and  C_10 
REMARK    6  A    between atoms: C_10  and  C_11 
REMARK    7  A    between atoms: C_11  and  C_12 
REMARK    8  A    between atoms: C_12  and  C_13 
REMARK    9  A    between atoms: C_15  and  C_16 
REMARK       I    between atoms: C_16  and  N_18 
REMARK   10  A    between atoms: N_18  and  C_20 
ROOT
HETATM    1  C   UNL     1      23.880  -1.782  23.545  1.00  0.00     0.061 C 
ENDROOT
BRANCH   1   2
HETATM    2  C   UNL     1      24.028  -2.876  24.041  1.00  0.00    -0.090 C 
BRANCH   2   3
HETATM    3  C   UNL     1      24.145  -4.045  24.138  1.00  0.00     0.157 C 
HETATM    4  N   UNL     1      23.796  -5.145  24.368  1.00  0.00    -0.288 N 
ATOM      5  HN  UNL     1      22.886  -5.443  24.018  1.00  0.00     0.178 HD
BRANCH   4   6
HETATM    6  S   UNL     1      24.675  -6.216  25.210  1.00  0.00     0.226 S 
HETATM    7  C   UNL     1      25.188  -7.394  23.919  1.00  0.00     0.186 C 
HETATM    8  O   UNL     1      25.855  -5.629  25.728  1.00  0.00    -0.206 OA
HETATM    9  O   UNL     1      23.907  -6.971  26.128  1.00  0.00    -0.206 OA
ENDBRANCH   4   6
ENDBRANCH   2   3
ENDBRANCH   1   2
BRANCH   1  10
HETATM   10  C   UNL     1      23.649  -1.900  22.379  1.00  0.00    -0.035 C 
BRANCH  10  11
HETATM   11  C   UNL     1      23.182  -1.789  21.155  1.00  0.00     0.294 C 
HETATM   12  O   UNL     1      22.056  -1.885  21.017  1.00  0.00    -0.258 OA
HETATM   13  N   UNL     1      24.181  -1.601  20.276  1.00  0.00    -0.314 N 
ATOM     14  HN  UNL     1      25.158  -1.570  20.569  1.00  0.00     0.170 HD
BRANCH  13  15
HETATM   15  C   UNL     1      23.851  -1.468  19.094  1.00  0.00     0.068 A 
HETATM   16  C   UNL     1      23.424  -0.496  18.292  1.00  0.00     0.118 A 
HETATM   17  N   UNL     1      23.093  -0.058  17.180  1.00  0.00    -0.373 N 
HETATM   18  C   UNL     1      23.264  -1.186  16.555  1.00  0.00     0.089 A 
ATOM     19  HN  UNL     1      22.792   0.864  16.866  1.00  0.00     0.164 HD
HETATM   20  C   UNL     1      23.647  -2.225  16.887  1.00  0.00     0.038 A 
HETATM   21  C   UNL     1      24.027  -2.657  18.081  1.00  0.00     0.040 A 
HETATM   22 BR   UNL     1      24.576  -4.144  18.527  1.00  0.00    -0.049 Br
ENDBRANCH  13  15
ENDBRANCH  10  11
ENDBRANCH   1  10
BRANCH   1  23
HETATM   23  C   UNL     1      23.517  -0.275  24.129  1.00  0.00     0.029 C 
BRANCH  23  24
HETATM   24  C   UNL     1      22.681   0.107  24.593  1.00  0.00     0.002 C 
BRANCH  24  25
HETATM   25  C   UNL     1      22.036  -0.374  25.801  1.00  0.00    -0.001 C 
BRANCH  25  26
HETATM   26  C   UNL     1      21.014  -0.964  25.647  1.00  0.00    -0.010 C 
HETATM   27  C   UNL     1      20.436  -1.630  25.179  1.00  0.00     0.011 C 
ENDBRANCH  25  26
ENDBRANCH  24  25
ENDBRANCH  23  24
ENDBRANCH   1  23
TORSDOF 10
ENDMDL
MODEL 7
REMARK VINA RESULT:    -5.659      3.309      7.098
REMARK INTER + INTRA:         -10.574
REMARK INTER:                  -9.063
REMARK INTRA:                  -1.511
REMARK UNBOUND:                -1.607
REMARK  10 active torsions:
REMARK  status: ('A' for Active; 'I' for Inactive)
REMARK    1  A    between atoms: S_2  and  N_5 
REMARK    2  A    between atoms: C_7  and  C_8 
REMARK    3  A    between atoms: C_8  and  C_9 
REMARK    4  A    between atoms: C_9  and  C_15 
REMARK    5  A    between atoms: C_9  and  C_10 
REMARK    6  A    between atoms: C_10  and  C_11 
REMARK    7  A    between atoms: C_11  and  C_12 
REMARK    8  A    between atoms: C_12  and  C_13 
REMARK    9  A    between atoms: C_15  and  C_16 
REMARK       I    between atoms: C_16  and  N_18 
REMARK   10  A    between atoms: N_18  and  C_20 
ROOT
HETATM    1  C   UNL     1       8.034   0.244  20.781  1.00  0.00     0.061 C 
ENDROOT
BRANCH   1   2
HETATM    2  C   UNL     1       8.060   1.233  21.477  1.00  0.00    -0.090 C 
BRANCH   2   3
HETATM    3  C   UNL     1       8.478   2.122  22.129  1.00  0.00     0.157 C 
HETATM    4  N   UNL     1       9.154   3.056  22.367  1.00  0.00    -0.288 N 
ATOM      5  HN  UNL     1       9.256   3.771  21.646  1.00  0.00     0.178 HD
BRANCH   4   6
HETATM    6  S   UNL     1       9.934   3.275  23.770  1.00  0.00     0.226 S 
HETATM    7  C   UNL     1      10.966   1.778  23.876  1.00  0.00     0.186 C 
HETATM    8  O   UNL     1      10.814   4.382  23.711  1.00  0.00    -0.206 OA
HETATM    9  O   UNL     1       9.079   3.226  24.898  1.00  0.00    -0.206 OA
ENDBRANCH   4   6
ENDBRANCH   2   3
ENDBRANCH   1   2
BRANCH   1  10
HETATM   10  C   UNL     1       7.903  -0.725  21.468  1.00  0.00    -0.035 C 
BRANCH  10  11
HETATM   11  C   UNL     1       7.612  -1.578  22.424  1.00  0.00     0.294 C 
HETATM   12  O   UNL     1       6.512  -1.839  22.572  1.00  0.00    -0.258 OA
HETATM   13  N   UNL     1       8.721  -1.965  23.076  1.00  0.00    -0.314 N 
ATOM     14  HN  UNL     1       9.643  -1.604  22.832  1.00  0.00     0.170 HD
BRANCH  13  15
HETATM   15  C   UNL     1       8.562  -2.782  23.988  1.00  0.00     0.068 A 
HETATM   16  C   UNL     1       8.432  -4.100  24.120  1.00  0.00     0.118 A 
HETATM   17  N   UNL     1       8.325  -5.127  24.806  1.00  0.00    -0.373 N 
HETATM   18  C   UNL     1       8.339  -4.507  25.950  1.00  0.00     0.089 A 
ATOM     19  HN  UNL     1       8.252  -6.114  24.560  1.00  0.00     0.164 HD
HETATM   20  C   UNL     1       8.467  -3.397  26.246  1.00  0.00     0.038 A 
HETATM   21  C   UNL     1       8.614  -2.319  25.489  1.00  0.00     0.040 A 
HETATM   22 BR   UNL     1       8.800  -0.745  25.938  1.00  0.00    -0.049 Br
ENDBRANCH  13  15
ENDBRANCH  10  11
ENDBRANCH   1  10
BRANCH   1  23
HETATM   23  C   UNL     1       7.724  -0.050  19.180  1.00  0.00     0.029 C 
BRANCH  23  24
HETATM   24  C   UNL     1       7.015   0.317  18.531  1.00  0.00     0.002 C 
BRANCH  24  25
HETATM   25  C   UNL     1       5.571   0.193  18.628  1.00  0.00    -0.001 C 
BRANCH  25  26
HETATM   26  C   UNL     1       4.983   1.178  18.941  1.00  0.00    -0.010 C 
HETATM   27  C   UNL     1       4.587   1.800  19.615  1.00  0.00     0.011 C 
ENDBRANCH  25  26
ENDBRANCH  24  25
ENDBRANCH  23  24
ENDBRANCH   1  23
TORSDOF 10
ENDMDL
MODEL 8
REMARK VINA RESULT:    -5.528      3.519      7.094
REMARK INTER + INTRA:         -10.366
REMARK INTER:                  -9.199
REMARK INTRA:                  -1.168
REMARK UNBOUND:                -1.607
REMARK  10 active torsions:
REMARK  status: ('A' for Active; 'I' for Inactive)
REMARK    1  A    between atoms: S_2  and  N_5 
REMARK    2  A    between atoms: C_7  and  C_8 
REMARK    3  A    between atoms: C_8  and  C_9 
REMARK    4  A    between atoms: C_9  and  C_15 
REMARK    5  A    between atoms: C_9  and  C_10 
REMARK    6  A    between atoms: C_10  and  C_11 
REMARK    7  A    between atoms: C_11  and  C_12 
REMARK    8  A    between atoms: C_12  and  C_13 
REMARK    9  A    between atoms: C_15  and  C_16 
REMARK       I    between atoms: C_16  and  N_18 
REMARK   10  A    between atoms: N_18  and  C_20 
ROOT
HETATM    1  C   UNL     1       8.224  -1.595  21.802  1.00  0.00     0.061 C 
ENDROOT
BRANCH   1   2
HETATM    2  C   UNL     1       9.344  -1.191  22.020  1.00  0.00    -0.090 C 
BRANCH   2   3
HETATM    3  C   UNL     1      10.317  -0.879  22.607  1.00  0.00     0.157 C 
HETATM    4  N   UNL     1      11.178  -0.997  23.402  1.00  0.00    -0.288 N 
ATOM      5  HN  UNL     1      11.631  -1.906  23.487  1.00  0.00     0.178 HD
BRANCH   4   6
HETATM    6  S   UNL     1      11.685   0.200  24.370  1.00  0.00     0.226 S 
HETATM    7  C   UNL     1      11.292   1.683  23.388  1.00  0.00     0.186 C 
HETATM    8  O   UNL     1      10.917   0.273  25.556  1.00  0.00    -0.206 OA
HETATM    9  O   UNL     1      13.090   0.222  24.542  1.00  0.00    -0.206 OA
ENDBRANCH   4   6
ENDBRANCH   2   3
ENDBRANCH   1   2
BRANCH   1  10
HETATM   10  C   UNL     1       8.068  -2.651  22.339  1.00  0.00    -0.035 C 
BRANCH  10  11
HETATM   11  C   UNL     1       7.745  -3.629  23.154  1.00  0.00     0.294 C 
HETATM   12  O   UNL     1       7.493  -4.636  22.684  1.00  0.00    -0.258 OA
HETATM   13  N   UNL     1       7.755  -3.213  24.432  1.00  0.00    -0.314 N 
ATOM     14  HN  UNL     1       7.977  -2.249  24.683  1.00  0.00     0.170 HD
BRANCH  13  15
HETATM   15  C   UNL     1       7.480  -4.062  25.285  1.00  0.00     0.068 A 
HETATM   16  C   UNL     1       8.127  -4.934  26.054  1.00  0.00     0.118 A 
HETATM   17  N   UNL     1       8.162  -5.792  26.948  1.00  0.00    -0.373 N 
HETATM   18  C   UNL     1       6.881  -5.777  27.175  1.00  0.00     0.089 A 
ATOM     19  HN  UNL     1       8.928  -6.324  27.362  1.00  0.00     0.164 HD
HETATM   20  C   UNL     1       6.010  -5.149  26.749  1.00  0.00     0.038 A 
HETATM   21  C   UNL     1       6.007  -4.211  25.813  1.00  0.00     0.040 A 
HETATM   22 BR   UNL     1       4.748  -3.326  25.226  1.00  0.00    -0.049 Br
ENDBRANCH  13  15
ENDBRANCH  10  11
ENDBRANCH   1  10
BRANCH   1  23
HETATM   23  C   UNL     1       6.800  -0.892  21.329  1.00  0.00     0.029 C 
BRANCH  23  24
HETATM   24  C   UNL     1       6.375  -0.739  20.404  1.00  0.00     0.002 C 
BRANCH  24  25
HETATM   25  C   UNL     1       6.637   0.343  19.472  1.00  0.00    -0.001 C 
BRANCH  25  26
HETATM   26  C   UNL     1       5.685   0.949  19.095  1.00  0.00    -0.010 C 
HETATM   27  C   UNL     1       4.871   1.508  19.246  1.00  0.00     0.011 C 
ENDBRANCH  25  26
ENDBRANCH  24  25
ENDBRANCH  23  24
ENDBRANCH   1  23
TORSDOF 10
ENDMDL
MODEL 9
REMARK VINA RESULT:    -5.361      2.889      5.606
REMARK INTER + INTRA:         -10.102
REMARK INTER:                  -9.155
REMARK INTRA:                  -0.947
REMARK UNBOUND:                -1.607
REMARK  10 active torsions:
REMARK  status: ('A' for Active; 'I' for Inactive)
REMARK    1  A    between atoms: S_2  and  N_5 
REMARK    2  A    between atoms: C_7  and  C_8 
REMARK    3  A    between atoms: C_8  and  C_9 
REMARK    4  A    between atoms: C_9  and  C_15 
REMARK    5  A    between atoms: C_9  and  C_10 
REMARK    6  A    between atoms: C_10  and  C_11 
REMARK    7  A    between atoms: C_11  and  C_12 
REMARK    8  A    between atoms: C_12  and  C_13 
REMARK    9  A    between atoms: C_15  and  C_16 
REMARK       I    between atoms: C_16  and  N_18 
REMARK   10  A    between atoms: N_18  and  C_20 
ROOT
HETATM    1  C   UNL     1       8.075   0.034  22.251  1.00  0.00     0.061 C 
ENDROOT
BRANCH   1   2
HETATM    2  C   UNL     1       8.447  -1.108  22.397  1.00  0.00    -0.090 C 
BRANCH   2   3
HETATM    3  C   UNL     1       8.437  -2.252  22.683  1.00  0.00     0.157 C 
HETATM    4  N   UNL     1       8.366  -3.410  22.482  1.00  0.00    -0.288 N 
ATOM      5  HN  UNL     1       8.886  -3.793  21.693  1.00  0.00     0.178 HD
BRANCH   4   6
HETATM    6  S   UNL     1       7.490  -4.432  23.385  1.00  0.00     0.226 S 
HETATM    7  C   UNL     1       7.106  -5.761  22.201  1.00  0.00     0.186 C 
HETATM    8  O   UNL     1       8.265  -5.009  24.419  1.00  0.00    -0.206 OA
HETATM    9  O   UNL     1       6.238  -3.899  23.776  1.00  0.00    -0.206 OA
ENDBRANCH   4   6
ENDBRANCH   2   3
ENDBRANCH   1   2
BRANCH   1  10
HETATM   10  C   UNL     1       9.018   0.768  22.276  1.00  0.00    -0.035 C 
BRANCH  10  11
HETATM   11  C   UNL     1       9.825   1.803  22.334  1.00  0.00     0.294 C 
HETATM   12  O   UNL     1      10.532   1.962  21.454  1.00  0.00    -0.258 OA
HETATM   13  N   UNL     1       9.660   2.476  23.485  1.00  0.00    -0.314 N 
ATOM     14  HN  UNL     1       8.992   2.174  24.195  1.00  0.00     0.170 HD
BRANCH  13  15
HETATM   15  C   UNL     1      10.362   3.481  23.636  1.00  0.00     0.068 A 
HETATM   16  C   UNL     1      11.657   3.785  23.655  1.00  0.00     0.118 A 
HETATM   17  N   UNL     1      12.590   4.599  23.718  1.00  0.00    -0.373 N 
HETATM   18  C   UNL     1      11.827   5.644  23.846  1.00  0.00     0.089 A 
ATOM     19  HN  UNL     1      13.603   4.488  23.683  1.00  0.00     0.164 HD
HETATM   20  C   UNL     1      10.680   5.791  23.842  1.00  0.00     0.038 A 
HETATM   21  C   UNL     1       9.702   4.903  23.738  1.00  0.00     0.040 A 
HETATM   22 BR   UNL     1       8.073   5.142  23.729  1.00  0.00    -0.049 Br
ENDBRANCH  13  15
ENDBRANCH  10  11
ENDBRANCH   1  10
BRANCH   1  23
HETATM   23  C   UNL     1       6.713   0.750  21.637  1.00  0.00     0.029 C 
BRANCH  23  24
HETATM   24  C   UNL     1       6.390   0.916  20.674  1.00  0.00     0.002 C 
BRANCH  24  25
HETATM   25  C   UNL     1       6.098  -0.071  19.651  1.00  0.00    -0.001 C 
BRANCH  25  26
HETATM   26  C   UNL     1       5.892   0.354  18.559  1.00  0.00    -0.010 C 
HETATM   27  C   UNL     1       5.924   1.072  17.866  1.00  0.00     0.011 C 
ENDBRANCH  25  26
ENDBRANCH  24  25
ENDBRANCH  23  24
ENDBRANCH   1  23
TORSDOF 10
ENDMDL
