REMARK  10 active torsions:
REMARK  status: ('A' for Active; 'I' for Inactive)
REMARK    1  A    between atoms: S_2  and  N_5 
REMARK    2  A    between atoms: C_7  and  C_8 
REMARK    3  A    between atoms: C_8  and  C_9 
REMARK    4  A    between atoms: C_9  and  C_15 
REMARK    5  A    between atoms: C_9  and  C_10 
REMARK    6  A    between atoms: C_10  and  C_11 
REMARK    7  A    between atoms: C_11  and  C_12 
REMARK    8  A    between atoms: C_12  and  C_13 
REMARK    9  A    between atoms: C_15  and  C_16 
REMARK       I    between atoms: C_16  and  N_18 
REMARK   10  A    between atoms: N_18  and  C_20 
ROOT
HETATM    1  C   UNL     1      10.096  -1.032  23.350  1.00  0.00     0.061 C 
ENDROOT
BRANCH   1   2
HETATM    2  C   UNL     1       9.438  -2.020  23.587  1.00  0.00    -0.090 C 
BRANCH   2   3
HETATM    3  C   UNL     1       8.970  -2.928  24.175  1.00  0.00     0.157 C 
HETATM    4  N   UNL     1       8.113  -3.546  24.695  1.00  0.00    -0.288 N 
ATOM      5  HN  UNL     1       7.219  -3.627  24.211  1.00  0.00     0.178 HD
BRANCH   4   6
HETATM    6  S   UNL     1       8.269  -4.275  26.134  1.00  0.00     0.226 S 
HETATM    7  C   UNL     1       6.566  -4.823  26.476  1.00  0.00     0.186 C 
HETATM    8  O   UNL     1       9.069  -5.439  26.045  1.00  0.00    -0.206 OA
HETATM    9  O   UNL     1       8.596  -3.380  27.181  1.00  0.00    -0.206 OA
ENDBRANCH   4   6
ENDBRANCH   2   3
ENDBRANCH   1   2
BRANCH   1  10
HETATM   10  C   UNL     1       9.737  -0.552  22.316  1.00  0.00    -0.035 C 
BRANCH  10  11
HETATM   11  C   UNL     1       9.082   0.061  21.356  1.00  0.00     0.294 C 
HETATM   12  O   UNL     1       9.558   0.999  20.918  1.00  0.00    -0.258 OA
HETATM   13  N   UNL     1       7.920  -0.561  21.095  1.00  0.00    -0.314 N 
ATOM     14  HN  UNL     1       7.624  -1.389  21.612  1.00  0.00     0.170 HD
BRANCH  13  15
HETATM   15  C   UNL     1       7.230  -0.074  20.194  1.00  0.00     0.068 A 
HETATM   16  C   UNL     1       7.253   0.003  18.866  1.00  0.00     0.118 A 
HETATM   17  N   UNL     1       6.754   0.327  17.778  1.00  0.00    -0.373 N 
HETATM   18  C   UNL     1       5.690   0.869  18.294  1.00  0.00     0.089 A 
ATOM     19  HN  UNL     1       7.068   0.210  16.815  1.00  0.00     0.164 HD
HETATM   20  C   UNL     1       5.299   0.969  19.377  1.00  0.00     0.038 A 
HETATM   21  C   UNL     1       5.840   0.581  20.523  1.00  0.00     0.040 A 
HETATM   22 BR   UNL     1       5.257   0.731  22.056  1.00  0.00    -0.049 Br
ENDBRANCH  13  15
ENDBRANCH  10  11
ENDBRANCH   1  10
BRANCH   1  23
HETATM   23  C   UNL     1      11.023  -0.001  24.256  1.00  0.00     0.029 C 
BRANCH  23  24
HETATM   24  C   UNL     1      12.021   0.249  24.220  1.00  0.00     0.002 C 
BRANCH  24  25
HETATM   25  C   UNL     1      13.054  -0.333  23.382  1.00  0.00    -0.001 C 
BRANCH  25  26
HETATM   26  C   UNL     1      12.713  -1.235  22.685  1.00  0.00    -0.010 C 
HETATM   27  C   UNL     1      12.035  -1.880  22.336  1.00  0.00     0.011 C 
ENDBRANCH  25  26
ENDBRANCH  24  25
ENDBRANCH  23  24
ENDBRANCH   1  23
TORSDOF 10
