stable:False satoms:19 tatoms:24 sratio:0.7916666666666666
  -OEChem-07092417293D

 24 25  0     1  0  0  0  0  0999 V2000
   10.7030   -3.4325   20.8479 C   0  0  0  0  0  0  0  0  0  0  0  0
    8.1620   -0.3836   19.2958 H   0  0  0  0  0  0  0  0  0  0  0  0
    9.5443   -3.2620   19.0479 H   0  0  0  0  0  0  0  0  0  0  0  0
    8.1717   -0.8266   20.2798 C   0  5  3  0  0  0  0  0  0  0  0  0
    8.8809   -0.9895   24.1162 N   0  0  0  0  0  0  0  0  0  0  0  0
    7.0895   -0.3731   21.1810 C   0  0  3  0  0  0  0  0  0  0  0  0
    6.2139    0.3526   21.0021 O   0  0  0  0  0  0  0  0  0  0  0  0
    6.9616    0.3474   23.4883 N   0  0  0  0  0  0  0  0  0  0  0  0
    5.6834   -1.5938   22.8729 O   0  0  0  0  0  0  0  0  0  0  0  0
    9.7893   -2.9032   20.0299 C   0  0  0  0  0  0  0  0  0  0  0  0
   11.3237   -4.3042   20.6903 H   0  0  0  0  0  0  0  0  0  0  0  0
   10.8414   -2.5371   22.3029 S   0  0  0  0  0  0  0  0  0  0  0  0
    8.8105    1.0625   24.1011 H   0  0  0  0  0  0  0  0  0  0  0  0
    9.8962   -1.0478   25.9704 H   0  0  0  0  0  0  0  0  0  0  0  0
    8.3807   -1.7601   23.7415 H   0  0  0  0  0  0  0  0  0  0  0  0
    6.4128    1.1977   23.4990 H   0  0  0  0  0  0  0  0  0  0  0  0
    6.5285   -0.5281   22.4393 C   0  0  2  0  0  0  0  0  0  0  0  0
    9.1637   -1.7332   20.6584 C   0  0  0  0  0  0  0  0  0  0  0  0
   10.7570   -0.3270   24.5855 H   0  0  0  0  0  0  0  0  0  0  0  0
   10.5362   -2.0885   24.6963 H   0  0  0  0  0  0  0  0  0  0  0  0
    9.7097   -1.5242   21.8508 N   0  0  0  0  0  0  0  0  0  0  0  0
    8.1344    0.2212   24.3272 C   0  0  0  0  0  0  0  0  0  0  0  0
    7.8253    0.2696   25.3847 H   0  0  0  0  0  0  0  0  0  0  0  0
   10.0643   -1.1266   24.8874 C   0  0  0  0  0  0  0  0  0  0  0  0
  3 10  1  0  0  0  0
  2  4  1  0  0  0  0
 10 18  1  0  0  0  0
  1 10  2  0  0  0  0
  4 18  1  0  0  0  0
  4  6  1  0  0  0  0
 18 21  2  0  0  0  0
  1 11  1  0  0  0  0
  1 12  1  0  0  0  0
  6  7  1  0  0  0  0
  7 17  1  0  0  0  0
  6 17  1  0  0  0  0
 12 21  1  0  0  0  0
  9 17  1  0  0  0  0
  8 17  1  0  0  0  0
  8 16  1  0  0  0  0
  8 22  1  0  0  0  0
  5 15  1  0  0  0  0
 13 22  1  0  0  0  0
  5 22  1  0  0  0  0
  5 24  1  0  0  0  0
 22 23  1  0  0  0  0
 19 24  1  0  0  0  0
 20 24  1  0  0  0  0
 14 24  1  0  0  0  0
M  CHG  1   4  -1
M  END
> <Shapegauss>
-87.055405

$$$$
