stable:False satoms:19 tatoms:24 sratio:0.7916666666666666
  -OEChem-08052414283D

 28 29  0     1  0  0  0  0  0999 V2000
   12.6054   -1.5519   23.4900 C   0  0  0  0  0  0  0  0  0  0  0  0
   10.8194    1.5133   25.6269 H   0  0  0  0  0  0  0  0  0  0  0  0
   13.7193   -0.4633   24.9684 H   0  0  0  0  0  0  0  0  0  0  0  0
   11.5710    1.7053   24.8471 C   0  0  3  0  0  0  0  0  0  0  0  0
    9.5901    1.1051   21.5360 N   0  0  0  0  0  0  0  0  0  0  0  0
   11.1012    2.9055   24.1205 C   0  0  3  0  0  0  0  0  0  0  0  0
   10.8772    3.9719   24.4917 O   0  0  0  0  0  0  0  0  0  0  0  0
    9.4211    3.3475   22.4350 N   0  3  0  0  0  0  0  0  0  0  0  0
   11.7022    3.8551   21.8696 O   0  0  0  0  0  0  0  0  0  0  0  0
   12.8674   -0.5379   24.3190 C   0  0  0  0  0  0  0  0  0  0  0  0
   13.1939   -2.4405   23.3057 H   0  0  0  0  0  0  0  0  0  0  0  0
   11.1190   -1.3260   22.6669 S   0  0  0  0  0  0  0  0  0  0  0  0
    7.9555    1.8805   22.5069 H   0  0  0  0  0  0  0  0  0  0  0  0
    8.4037    0.1915   20.0426 H   0  0  0  0  0  0  0  0  0  0  0  0
   10.2982    1.4063   20.8973 H   0  0  0  0  0  0  0  0  0  0  0  0
    8.8826    3.5503   23.2529 H   0  0  0  0  0  0  0  0  0  0  0  0
   10.7845    3.4177   22.8717 C   0  0  2  0  0  0  0  0  0  0  0  0
   11.8066    0.4734   24.2337 C   0  0  0  0  0  0  0  0  0  0  0  0
    8.2292   -0.4101   21.7118 H   0  0  0  0  0  0  0  0  0  0  0  0
    9.6730   -0.8090   20.7526 H   0  0  0  0  0  0  0  0  0  0  0  0
   10.8775    0.0714   23.3741 N   0  0  0  0  0  0  0  0  0  0  0  0
    8.7400    2.2306   21.8155 C   0  0  0  0  0  0  0  0  0  0  0  0
    8.2776    2.5706   20.8738 H   0  0  0  0  0  0  0  0  0  0  0  0
    8.9478   -0.0276   20.9718 C   0  0  0  0  0  0  0  0  0  0  0  0
   12.5226    1.9929   25.3179 H   0  0  0  0  0  0  0  0  0  0  0  0
   10.0539    2.6101   24.2815 H   0  0  0  0  0  0  0  0  0  0  0  0
   11.4897    3.4399   21.0420 H   0  0  0  0  0  0  0  0  0  0  0  0
    9.3265    4.0968   21.7795 H   0  0  0  0  0  0  0  0  0  0  0  0
  3 10  1  0  0  0  0
  2  4  1  0  0  0  0
 10 18  1  0  0  0  0
  1 10  2  0  0  0  0
  4 18  1  0  0  0  0
  4  6  1  0  0  0  0
 18 21  2  0  0  0  0
  1 11  1  0  0  0  0
  1 12  1  0  0  0  0
  6  7  1  0  0  0  0
  7 17  1  0  0  0  0
  6 17  1  0  0  0  0
 12 21  1  0  0  0  0
  9 17  1  0  0  0  0
  8 17  1  0  0  0  0
  8 16  1  0  0  0  0
  8 22  1  0  0  0  0
  5 15  1  0  0  0  0
 13 22  1  0  0  0  0
  5 22  1  0  0  0  0
  5 24  1  0  0  0  0
 22 23  1  0  0  0  0
 19 24  1  0  0  0  0
 20 24  1  0  0  0  0
 14 24  1  0  0  0  0
  4 25  1  0  0  0  0
  6 26  1  0  0  0  0
  9 27  1  0  0  0  0
  8 28  1  0  0  0  0
M  CHG  1   8   1
M  END
> <Chemgauss4>
-6.369534

$$$$
