stable:False satoms:19 tatoms:24 sratio:0.7916666666666666
  -OEChem-08052414283D

 28 29  0     1  0  0  0  0  0999 V2000
  -13.0885   -1.4399  -23.3364 C   0  0  0  0  0  0  0  0  0  0  0  0
  -10.5200    1.0384  -25.4370 H   0  0  0  0  0  0  0  0  0  0  0  0
  -13.7692   -0.4009  -25.0882 H   0  0  0  0  0  0  0  0  0  0  0  0
  -11.3416    1.4344  -24.8220 C   0  0  3  0  0  0  0  0  0  0  0  0
  -10.0191    0.9849  -21.1756 N   0  0  0  0  0  0  0  0  0  0  0  0
  -10.8006    2.6378  -24.1525 C   0  0  3  0  0  0  0  0  0  0  0  0
  -10.3517    3.6047  -24.5870 O   0  0  0  0  0  0  0  0  0  0  0  0
   -9.3512    3.0463  -22.2573 N   0  3  0  0  0  0  0  0  0  0  0  0
  -11.5789    3.9440  -22.1481 O   0  0  0  0  0  0  0  0  0  0  0  0
  -13.0512   -0.5133  -24.2976 C   0  0  0  0  0  0  0  0  0  0  0  0
  -13.8350   -2.2039  -23.1660 H   0  0  0  0  0  0  0  0  0  0  0  0
  -11.7301   -1.3261  -22.2973 S   0  0  0  0  0  0  0  0  0  0  0  0
   -8.1503    1.3871  -21.9250 H   0  0  0  0  0  0  0  0  0  0  0  0
   -9.2417    0.1092  -19.4146 H   0  0  0  0  0  0  0  0  0  0  0  0
  -10.7587    1.4639  -20.7027 H   0  0  0  0  0  0  0  0  0  0  0  0
   -8.6673    3.0633  -22.9868 H   0  0  0  0  0  0  0  0  0  0  0  0
  -10.6012    3.2548  -22.9271 C   0  0  2  0  0  0  0  0  0  0  0  0
  -11.8660    0.3378  -24.1352 C   0  0  0  0  0  0  0  0  0  0  0  0
   -8.9121   -0.7198  -20.9582 H   0  0  0  0  0  0  0  0  0  0  0  0
  -10.5319   -0.7813  -20.2260 H   0  0  0  0  0  0  0  0  0  0  0  0
  -11.1585   -0.0800  -23.0920 N   0  0  0  0  0  0  0  0  0  0  0  0
   -8.9645    1.9317  -21.4186 C   0  0  0  0  0  0  0  0  0  0  0  0
   -8.6038    2.3196  -20.4513 H   0  0  0  0  0  0  0  0  0  0  0  0
   -9.6643   -0.1466  -20.3961 C   0  0  0  0  0  0  0  0  0  0  0  0
  -12.1496    1.7930  -25.4766 H   0  0  0  0  0  0  0  0  0  0  0  0
   -9.8031    2.1771  -24.0997 H   0  0  0  0  0  0  0  0  0  0  0  0
  -11.5670    3.6119  -21.2581 H   0  0  0  0  0  0  0  0  0  0  0  0
   -9.2383    3.8518  -21.6757 H   0  0  0  0  0  0  0  0  0  0  0  0
  3 10  1  0  0  0  0
  2  4  1  0  0  0  0
 10 18  1  0  0  0  0
  1 10  2  0  0  0  0
  4 18  1  0  0  0  0
  4  6  1  0  0  0  0
 18 21  2  0  0  0  0
  1 11  1  0  0  0  0
  1 12  1  0  0  0  0
  6  7  1  0  0  0  0
  7 17  1  0  0  0  0
  6 17  1  0  0  0  0
 12 21  1  0  0  0  0
  9 17  1  0  0  0  0
  8 17  1  0  0  0  0
  8 16  1  0  0  0  0
  8 22  1  0  0  0  0
  5 15  1  0  0  0  0
 13 22  1  0  0  0  0
  5 22  1  0  0  0  0
  5 24  1  0  0  0  0
 22 23  1  0  0  0  0
 19 24  1  0  0  0  0
 20 24  1  0  0  0  0
 14 24  1  0  0  0  0
  4 25  1  0  0  0  0
  6 26  1  0  0  0  0
  9 27  1  0  0  0  0
  8 28  1  0  0  0  0
M  CHG  1   8   1
M  END
> <Chemgauss4>
-5.841504

$$$$
