stable:False satoms:21 tatoms:24 sratio:0.875
  -OEChem-07092417313D

 24 24  0     1  0  0  0  0  0999 V2000
    8.5268   -2.6936   23.8709 C   0  0  0  0  0  0  0  0  0  0  0  0
    8.8274   -3.7456   24.0089 H   0  0  0  0  0  0  0  0  0  0  0  0
    7.6440   -2.5402   22.7917 N   0  0  0  0  0  0  0  0  0  0  0  0
    8.1052   -2.4023   24.8339 H   0  0  0  0  0  0  0  0  0  0  0  0
    7.4899   -3.3220   22.1571 H   0  0  0  0  0  0  0  0  0  0  0  0
   10.3499   -1.7726   24.4459 H   0  0  0  0  0  0  0  0  0  0  0  0
    6.4191   -0.9897   21.2689 N   0  0  0  0  0  0  0  0  0  0  0  0
   10.0640    0.7155   23.6656 C   0  0  0  0  0  0  0  0  0  0  0  0
   11.7815    0.1077   24.6592 H   0  0  0  0  0  0  0  0  0  0  0  0
    9.6122    1.7597   24.1022 O   0  0  0  0  0  0  0  0  0  0  0  0
    8.3179   -0.2561   22.2647 C   0  0  0  0  0  0  0  0  0  0  0  0
   10.3507   -2.2098   22.7378 H   0  0  0  0  0  0  0  0  0  0  0  0
   12.0827    1.3685   23.4925 H   0  0  0  0  0  0  0  0  0  0  0  0
   11.7930   -0.2668   22.9065 H   0  0  0  0  0  0  0  0  0  0  0  0
   11.5163    0.4622   23.6688 C   0  0  0  0  0  0  0  0  0  0  0  0
    9.7525   -1.7740   23.5474 C   0  0  0  0  0  0  0  0  0  0  0  0
    7.0392   -2.6659   20.0870 O   0  0  0  0  0  0  0  0  0  0  0  0
    7.5487   -2.8714   19.3324 H   0  0  0  0  0  0  0  0  0  0  0  0
    7.4243   -1.2962   22.0573 C   0  0  3  0  0  0  0  0  0  0  0  0
    8.1612    0.6332   21.6667 H   0  0  0  0  0  0  0  0  0  0  0  0
    5.9497   -0.0855   21.2059 H   0  0  0  0  0  0  0  0  0  0  0  0
    5.3534   -1.3557   19.2905 O   0  0  0  0  0  0  0  0  0  0  0  0
    6.1685   -1.6735   20.0867 C   0  0  0  0  0  0  0  0  0  0  0  0
    9.3059   -0.4161   23.1485 C   0  0  0  0  0  0  0  0  0  0  0  0
 22 23  2  0  0  0  0
 17 18  1  0  0  0  0
 17 23  1  0  0  0  0
  7 23  1  0  0  0  0
  7 21  1  0  0  0  0
  7 19  1  0  0  0  0
 11 20  1  0  0  0  0
 11 19  1  0  0  0  0
  3 19  1  0  0  0  0
  3  5  1  0  0  0  0
 11 24  2  0  0  0  0
 12 16  1  0  0  0  0
  1  3  1  0  0  0  0
 14 15  1  0  0  0  0
 16 24  1  0  0  0  0
  8 24  1  0  0  0  0
 13 15  1  0  0  0  0
  1 16  1  0  0  0  0
  6 16  1  0  0  0  0
  8 15  1  0  0  0  0
  8 10  2  0  0  0  0
  9 15  1  0  0  0  0
  1  2  1  0  0  0  0
  1  4  1  0  0  0  0
M  END
> <Shapegauss>
-117.244804

$$$$
