MODEL 1
REMARK VINA RESULT:    -5.257      0.000      0.000
REMARK INTER + INTRA:          -5.799
REMARK INTER:                  -5.718
REMARK INTRA:                  -0.081
REMARK UNBOUND:                -0.081
REMARK  2 active torsions:
REMARK  status: ('A' for Active; 'I' for Inactive)
REMARK       I    between atoms: N_4  and  C_15 
REMARK    1  A    between atoms: C_5  and  C_16 
REMARK    2  A    between atoms: O_10  and  C_15 
ROOT
HETATM    1  C   UNL     1       5.845  -0.303  18.259  1.00  0.00     0.126 C 
HETATM    2  N   UNL     1       4.771   0.503  18.667  1.00  0.00    -0.376 N 
HETATM    3  H   UNL     1       4.213   0.985  17.963  1.00  0.00     0.161 HD
HETATM    4  N   UNL     1       3.670   1.786  20.500  1.00  0.00    -0.289 N 
HETATM    5  C   UNL     1       5.906   1.433  20.615  1.00  0.00     0.059 C 
HETATM    6  C   UNL     1       7.136   0.440  18.742  1.00  0.00     0.062 C 
HETATM    7  C   UNL     1       4.724   1.276  19.906  1.00  0.00     0.106 C 
HETATM    8  H   UNL     1       3.494   1.814  21.505  1.00  0.00     0.173 HD
HETATM    9  O   UNL     1       2.013   3.346  20.459  1.00  0.00    -0.632 OA
HETATM   10  C   UNL     1       2.893   2.775  19.913  1.00  0.00     0.255 C 
HETATM   11  C   UNL     1       7.016   0.843  20.166  1.00  0.00    -0.008 C 
ENDROOT
BRANCH  10  12
HETATM   12  O   UNL     1       3.390   2.909  18.697  1.00  0.00    -0.760 OA
HETATM   13  H   UNL     1       3.014   3.495  18.075  1.00  0.00     0.169 HD
ENDBRANCH  10  12
BRANCH  11  14
HETATM   14  C   UNL     1       8.192   0.675  21.010  1.00  0.00     0.151 C 
HETATM   15  C   UNL     1       8.318  -0.700  21.526  1.00  0.00     0.096 C 
HETATM   16  O   UNL     1       8.993   1.537  21.327  1.00  0.00    -0.293 OA
ENDBRANCH  11  14
TORSDOF 2
ENDMDL
MODEL 2
REMARK VINA RESULT:    -5.215      2.947      4.244
REMARK INTER + INTRA:          -5.753
REMARK INTER:                  -5.669
REMARK INTRA:                  -0.084
REMARK UNBOUND:                -0.081
REMARK  2 active torsions:
REMARK  status: ('A' for Active; 'I' for Inactive)
REMARK       I    between atoms: N_4  and  C_15 
REMARK    1  A    between atoms: C_5  and  C_16 
REMARK    2  A    between atoms: O_10  and  C_15 
ROOT
HETATM    1  C   UNL     1      10.138  -0.065  21.687  1.00  0.00     0.126 C 
HETATM    2  N   UNL     1       9.101  -0.270  20.765  1.00  0.00    -0.376 N 
HETATM    3  H   UNL     1       9.326  -0.585  19.822  1.00  0.00     0.161 HD
HETATM    4  N   UNL     1       6.736   0.180  20.110  1.00  0.00    -0.289 N 
HETATM    5  C   UNL     1       7.792   1.669  21.454  1.00  0.00     0.059 C 
HETATM    6  C   UNL     1      10.189   1.481  21.927  1.00  0.00     0.062 C 
HETATM    7  C   UNL     1       7.859   0.499  20.712  1.00  0.00     0.106 C 
HETATM    8  H   UNL     1       5.792   0.336  20.464  1.00  0.00     0.173 HD
HETATM    9  O   UNL     1       5.637  -0.126  18.140  1.00  0.00    -0.632 OA
HETATM   10  C   UNL     1       6.648   0.039  18.732  1.00  0.00     0.255 C 
HETATM   11  C   UNL     1       8.835   2.020  22.209  1.00  0.00    -0.008 C 
ENDROOT
BRANCH  10  12
HETATM   12  O   UNL     1       7.892   0.164  18.306  1.00  0.00    -0.760 OA
HETATM   13  H   UNL     1       8.566  -0.419  18.584  1.00  0.00     0.169 HD
ENDBRANCH  10  12
BRANCH  11  14
HETATM   14  C   UNL     1       8.721   3.027  23.256  1.00  0.00     0.151 C 
HETATM   15  C   UNL     1       9.119   2.507  24.577  1.00  0.00     0.096 C 
HETATM   16  O   UNL     1       8.310   4.167  23.132  1.00  0.00    -0.293 OA
ENDBRANCH  11  14
TORSDOF 2
ENDMDL
MODEL 3
REMARK VINA RESULT:    -5.075      3.935      6.731
REMARK INTER + INTRA:          -5.601
REMARK INTER:                  -5.538
REMARK INTRA:                  -0.063
REMARK UNBOUND:                -0.081
REMARK  2 active torsions:
REMARK  status: ('A' for Active; 'I' for Inactive)
REMARK       I    between atoms: N_4  and  C_15 
REMARK    1  A    between atoms: C_5  and  C_16 
REMARK    2  A    between atoms: O_10  and  C_15 
ROOT
HETATM    1  C   UNL     1       7.732  -2.691  22.238  1.00  0.00     0.126 C 
HETATM    2  N   UNL     1       9.046  -2.433  22.657  1.00  0.00    -0.376 N 
HETATM    3  H   UNL     1       9.301  -2.597  23.630  1.00  0.00     0.161 HD
HETATM    4  N   UNL     1      11.211  -1.272  22.225  1.00  0.00    -0.289 N 
HETATM    5  C   UNL     1       9.318  -0.406  21.328  1.00  0.00     0.059 C 
HETATM    6  C   UNL     1       7.110  -1.291  21.916  1.00  0.00     0.062 C 
HETATM    7  C   UNL     1       9.906  -1.379  22.123  1.00  0.00     0.106 C 
HETATM    8  H   UNL     1      11.853  -0.956  21.498  1.00  0.00     0.173 HD
HETATM    9  O   UNL     1      13.002  -0.881  23.575  1.00  0.00    -0.632 OA
HETATM   10  C   UNL     1      11.848  -1.102  23.447  1.00  0.00     0.255 C 
HETATM   11  C   UNL     1       8.015  -0.494  21.051  1.00  0.00    -0.008 C 
ENDROOT
BRANCH  10  12
HETATM   12  O   UNL     1      10.883  -1.215  24.342  1.00  0.00    -0.760 OA
HETATM   13  H   UNL     1      10.332  -0.494  24.563  1.00  0.00     0.169 HD
ENDBRANCH  10  12
BRANCH  11  14
HETATM   14  C   UNL     1       7.406   0.274  19.973  1.00  0.00     0.151 C 
HETATM   15  C   UNL     1       6.225   1.032  20.424  1.00  0.00     0.096 C 
HETATM   16  O   UNL     1       7.754   0.298  18.806  1.00  0.00    -0.293 OA
ENDBRANCH  11  14
TORSDOF 2
ENDMDL
MODEL 4
REMARK VINA RESULT:    -5.027      6.883      8.853
REMARK INTER + INTRA:          -5.549
REMARK INTER:                  -5.483
REMARK INTRA:                  -0.066
REMARK UNBOUND:                -0.081
REMARK  2 active torsions:
REMARK  status: ('A' for Active; 'I' for Inactive)
REMARK       I    between atoms: N_4  and  C_15 
REMARK    1  A    between atoms: C_5  and  C_16 
REMARK    2  A    between atoms: O_10  and  C_15 
ROOT
HETATM    1  C   UNL     1       7.740  -2.300  24.494  1.00  0.00     0.126 C 
HETATM    2  N   UNL     1       7.644  -3.143  25.611  1.00  0.00    -0.376 N 
HETATM    3  H   UNL     1       8.396  -3.148  26.299  1.00  0.00     0.161 HD
HETATM    4  N   UNL     1       6.593  -5.146  26.662  1.00  0.00    -0.289 N 
HETATM    5  C   UNL     1       6.670  -5.023  24.401  1.00  0.00     0.059 C 
HETATM    6  C   UNL     1       7.925  -3.251  23.264  1.00  0.00     0.062 C 
HETATM    7  C   UNL     1       6.997  -4.453  25.622  1.00  0.00     0.106 C 
HETATM    8  H   UNL     1       5.735  -5.694  26.731  1.00  0.00     0.173 HD
HETATM    9  O   UNL     1       7.172  -6.358  28.501  1.00  0.00    -0.632 OA
HETATM   10  C   UNL     1       7.475  -5.630  27.619  1.00  0.00     0.255 C 
HETATM   11  C   UNL     1       6.919  -4.342  23.280  1.00  0.00    -0.008 C 
ENDROOT
BRANCH  10  12
HETATM   12  O   UNL     1       8.645  -5.123  27.277  1.00  0.00    -0.760 OA
HETATM   13  H   UNL     1       8.717  -4.435  26.650  1.00  0.00     0.169 HD
ENDBRANCH  10  12
BRANCH  11  14
HETATM   14  C   UNL     1       6.311  -4.709  22.007  1.00  0.00     0.151 C 
HETATM   15  C   UNL     1       6.705  -6.060  21.568  1.00  0.00     0.096 C 
HETATM   16  O   UNL     1       5.588  -4.014  21.315  1.00  0.00    -0.293 OA
ENDBRANCH  11  14
TORSDOF 2
ENDMDL
MODEL 5
REMARK VINA RESULT:    -4.969     16.690     19.226
REMARK INTER + INTRA:          -5.485
REMARK INTER:                  -5.411
REMARK INTRA:                  -0.075
REMARK UNBOUND:                -0.081
REMARK  2 active torsions:
REMARK  status: ('A' for Active; 'I' for Inactive)
REMARK       I    between atoms: N_4  and  C_15 
REMARK    1  A    between atoms: C_5  and  C_16 
REMARK    2  A    between atoms: O_10  and  C_15 
ROOT
HETATM    1  C   UNL     1      24.428  -3.433  27.433  1.00  0.00     0.126 C 
HETATM    2  N   UNL     1      23.499  -2.653  26.727  1.00  0.00    -0.376 N 
HETATM    3  H   UNL     1      22.838  -2.075  27.244  1.00  0.00     0.161 HD
HETATM    4  N   UNL     1      22.281  -2.237  24.591  1.00  0.00    -0.289 N 
HETATM    5  C   UNL     1      23.047  -4.328  25.012  1.00  0.00     0.059 C 
HETATM    6  C   UNL     1      24.000  -4.919  27.191  1.00  0.00     0.062 C 
HETATM    7  C   UNL     1      22.894  -3.020  25.448  1.00  0.00     0.106 C 
HETATM    8  H   UNL     1      22.350  -2.278  23.574  1.00  0.00     0.173 HD
HETATM    9  O   UNL     1      20.454  -0.961  24.126  1.00  0.00    -0.632 OA
HETATM   10  C   UNL     1      21.101  -1.576  24.902  1.00  0.00     0.255 C 
HETATM   11  C   UNL     1      23.767  -5.177  25.748  1.00  0.00    -0.008 C 
ENDROOT
BRANCH  10  12
HETATM   12  O   UNL     1      20.906  -1.831  26.183  1.00  0.00    -0.760 OA
HETATM   13  H   UNL     1      20.648  -2.678  26.480  1.00  0.00     0.169 HD
ENDBRANCH  10  12
BRANCH  11  14
HETATM   14  C   UNL     1      24.252  -6.441  25.208  1.00  0.00     0.151 C 
HETATM   15  C   UNL     1      25.059  -6.254  23.989  1.00  0.00     0.096 C 
HETATM   16  O   UNL     1      24.019  -7.557  25.637  1.00  0.00    -0.293 OA
ENDBRANCH  11  14
TORSDOF 2
ENDMDL
MODEL 6
REMARK VINA RESULT:    -4.897     22.134     23.582
REMARK INTER + INTRA:          -5.407
REMARK INTER:                  -5.330
REMARK INTRA:                  -0.077
REMARK UNBOUND:                -0.081
REMARK  2 active torsions:
REMARK  status: ('A' for Active; 'I' for Inactive)
REMARK       I    between atoms: N_4  and  C_15 
REMARK    1  A    between atoms: C_5  and  C_16 
REMARK    2  A    between atoms: O_10  and  C_15 
ROOT
HETATM    1  C   UNL     1       3.698 -18.845   8.868  1.00  0.00     0.126 C 
HETATM    2  N   UNL     1       2.768 -17.804   8.727  1.00  0.00    -0.376 N 
HETATM    3  H   UNL     1       2.883 -16.954   9.277  1.00  0.00     0.161 HD
HETATM    4  N   UNL     1       0.496 -17.087   7.989  1.00  0.00    -0.289 N 
HETATM    5  C   UNL     1       0.818 -19.259   8.553  1.00  0.00     0.059 C 
HETATM    6  C   UNL     1       2.920 -20.014   9.560  1.00  0.00     0.062 C 
HETATM    7  C   UNL     1       1.346 -17.981   8.438  1.00  0.00     0.106 C 
HETATM    8  H   UNL     1      -0.241 -17.242   7.300  1.00  0.00     0.173 HD
HETATM    9  O   UNL     1      -0.693 -15.191   8.408  1.00  0.00    -0.632 OA
HETATM   10  C   UNL     1       0.155 -15.956   8.717  1.00  0.00     0.255 C 
HETATM   11  C   UNL     1       1.627 -20.269   8.878  1.00  0.00    -0.008 C 
ENDROOT
BRANCH  10  12
HETATM   12  O   UNL     1       0.948 -15.990   9.773  1.00  0.00    -0.760 OA
HETATM   13  H   UNL     1       0.684 -16.395  10.572  1.00  0.00     0.169 HD
ENDBRANCH  10  12
BRANCH  11  14
HETATM   14  C   UNL     1       1.233 -21.660   8.690  1.00  0.00     0.151 C 
HETATM   15  C   UNL     1       2.028 -22.583   9.519  1.00  0.00     0.096 C 
HETATM   16  O   UNL     1       0.386 -22.082   7.923  1.00  0.00    -0.293 OA
ENDBRANCH  11  14
TORSDOF 2
ENDMDL
MODEL 7
REMARK VINA RESULT:    -4.738      2.847      4.063
REMARK INTER + INTRA:          -5.235
REMARK INTER:                  -5.149
REMARK INTRA:                  -0.086
REMARK UNBOUND:                -0.081
REMARK  2 active torsions:
REMARK  status: ('A' for Active; 'I' for Inactive)
REMARK       I    between atoms: N_4  and  C_15 
REMARK    1  A    between atoms: C_5  and  C_16 
REMARK    2  A    between atoms: O_10  and  C_15 
ROOT
HETATM    1  C   UNL     1       7.751   2.122  22.268  1.00  0.00     0.126 C 
HETATM    2  N   UNL     1       7.140   1.591  21.122  1.00  0.00    -0.376 N 
HETATM    3  H   UNL     1       6.125   1.615  21.041  1.00  0.00     0.161 HD
HETATM    4  N   UNL     1       7.319   0.101  19.130  1.00  0.00    -0.289 N 
HETATM    5  C   UNL     1       8.642  -0.320  20.921  1.00  0.00     0.059 C 
HETATM    6  C   UNL     1       8.353   0.894  23.030  1.00  0.00     0.062 C 
HETATM    7  C   UNL     1       7.640   0.453  20.354  1.00  0.00     0.106 C 
HETATM    8  H   UNL     1       7.953  -0.258  18.415  1.00  0.00     0.173 HD
HETATM    9  O   UNL     1       5.731  -0.733  17.727  1.00  0.00    -0.632 OA
HETATM   10  C   UNL     1       6.035  -0.294  18.783  1.00  0.00     0.255 C 
HETATM   11  C   UNL     1       9.134   0.028  22.112  1.00  0.00    -0.008 C 
ENDROOT
BRANCH  10  12
HETATM   12  O   UNL     1       5.320  -0.091  19.875  1.00  0.00    -0.760 OA
HETATM   13  H   UNL     1       4.471   0.296  19.840  1.00  0.00     0.169 HD
ENDBRANCH  10  12
BRANCH  11  14
HETATM   14  C   UNL     1      10.392  -0.513  22.611  1.00  0.00     0.151 C 
HETATM   15  C   UNL     1      11.209   0.509  23.291  1.00  0.00     0.096 C 
HETATM   16  O   UNL     1      10.802  -1.652  22.478  1.00  0.00    -0.293 OA
ENDBRANCH  11  14
TORSDOF 2
ENDMDL
MODEL 8
REMARK VINA RESULT:    -4.731     18.881     20.158
REMARK INTER + INTRA:          -5.226
REMARK INTER:                  -5.144
REMARK INTRA:                  -0.082
REMARK UNBOUND:                -0.081
REMARK  2 active torsions:
REMARK  status: ('A' for Active; 'I' for Inactive)
REMARK       I    between atoms: N_4  and  C_15 
REMARK    1  A    between atoms: C_5  and  C_16 
REMARK    2  A    between atoms: O_10  and  C_15 
ROOT
HETATM    1  C   UNL     1      24.370   1.465  16.094  1.00  0.00     0.126 C 
HETATM    2  N   UNL     1      24.734   1.564  14.743  1.00  0.00    -0.376 N 
HETATM    3  H   UNL     1      24.369   2.333  14.183  1.00  0.00     0.161 HD
HETATM    4  N   UNL     1      25.631   0.433  12.709  1.00  0.00    -0.289 N 
HETATM    5  C   UNL     1      24.627  -0.832  14.299  1.00  0.00     0.059 C 
HETATM    6  C   UNL     1      23.461   0.194  16.194  1.00  0.00     0.062 C 
HETATM    7  C   UNL     1      24.997   0.430  13.859  1.00  0.00     0.106 C 
HETATM    8  H   UNL     1      26.281  -0.278  12.372  1.00  0.00     0.173 HD
HETATM    9  O   UNL     1      25.625   1.052  10.518  1.00  0.00    -0.632 OA
HETATM   10  C   UNL     1      25.155   1.121  11.601  1.00  0.00     0.255 C 
HETATM   11  C   UNL     1      24.091  -0.965  15.515  1.00  0.00    -0.008 C 
ENDROOT
BRANCH  10  12
HETATM   12  O   UNL     1      24.106   1.786  12.049  1.00  0.00    -0.760 OA
HETATM   13  H   UNL     1      24.142   2.704  12.215  1.00  0.00     0.169 HD
ENDBRANCH  10  12
BRANCH  11  14
HETATM   14  C   UNL     1      23.994  -2.261  16.174  1.00  0.00     0.151 C 
HETATM   15  C   UNL     1      24.924  -2.381  17.311  1.00  0.00     0.096 C 
HETATM   16  O   UNL     1      23.281  -3.194  15.849  1.00  0.00    -0.293 OA
ENDBRANCH  11  14
TORSDOF 2
ENDMDL
MODEL 9
REMARK VINA RESULT:    -4.679      7.910      8.745
REMARK INTER + INTRA:          -5.171
REMARK INTER:                  -5.095
REMARK INTRA:                  -0.076
REMARK UNBOUND:                -0.081
REMARK  2 active torsions:
REMARK  status: ('A' for Active; 'I' for Inactive)
REMARK       I    between atoms: N_4  and  C_15 
REMARK    1  A    between atoms: C_5  and  C_16 
REMARK    2  A    between atoms: O_10  and  C_15 
ROOT
HETATM    1  C   UNL     1       6.971  -5.603  22.798  1.00  0.00     0.126 C 
HETATM    2  N   UNL     1       5.643  -6.055  22.800  1.00  0.00    -0.376 N 
HETATM    3  H   UNL     1       4.996  -5.710  22.092  1.00  0.00     0.161 HD
HETATM    4  N   UNL     1       3.775  -7.118  24.066  1.00  0.00    -0.289 N 
HETATM    5  C   UNL     1       5.397  -6.042  25.227  1.00  0.00     0.059 C 
HETATM    6  C   UNL     1       7.118  -4.723  24.085  1.00  0.00     0.062 C 
HETATM    7  C   UNL     1       4.877  -6.408  23.994  1.00  0.00     0.106 C 
HETATM    8  H   UNL     1       3.543  -7.809  24.781  1.00  0.00     0.173 HD
HETATM    9  O   UNL     1       1.544  -7.246  23.630  1.00  0.00    -0.632 OA
HETATM   10  C   UNL     1       2.584  -6.702  23.488  1.00  0.00     0.255 C 
HETATM   11  C   UNL     1       6.581  -5.428  25.275  1.00  0.00    -0.008 C 
ENDROOT
BRANCH  10  12
HETATM   12  O   UNL     1       2.905  -5.607  22.822  1.00  0.00    -0.760 OA
HETATM   13  H   UNL     1       2.668  -5.491  21.926  1.00  0.00     0.169 HD
ENDBRANCH  10  12
BRANCH  11  14
HETATM   14  C   UNL     1       7.340  -5.320  26.515  1.00  0.00     0.151 C 
HETATM   15  C   UNL     1       8.283  -4.187  26.496  1.00  0.00     0.096 C 
HETATM   16  O   UNL     1       7.283  -6.068  27.475  1.00  0.00    -0.293 OA
ENDBRANCH  11  14
TORSDOF 2
ENDMDL
