MODEL 1
REMARK VINA RESULT:    -7.820      0.000      0.000
REMARK INTER + INTRA:         -10.839
REMARK INTER:                 -10.106
REMARK INTRA:                  -0.734
REMARK UNBOUND:                -0.734
REMARK  5 active torsions:
REMARK  status: ('A' for Active; 'I' for Inactive)
REMARK    1  A    between atoms: S_2  and  N_5 
REMARK    2  A    between atoms: N_5  and  C_7 
REMARK    3  A    between atoms: C_7  and  C_8 
REMARK    4  A    between atoms: C_15  and  C_16 
REMARK       I    between atoms: C_16  and  N_18 
REMARK    5  A    between atoms: N_18  and  C_20 
ROOT
HETATM    1  C   UNL     1       8.855  -2.442  23.393  1.00  0.00    -0.008 A 
HETATM    2  C   UNL     1       9.587  -1.338  23.437  1.00  0.00     0.058 A 
HETATM    3  C   UNL     1       9.812  -0.290  24.653  1.00  0.00    -0.003 C 
HETATM    4  C   UNL     1      10.735   0.208  24.890  1.00  0.00    -0.002 C 
HETATM    5  C   UNL     1      12.018   0.080  24.347  1.00  0.00    -0.001 C 
HETATM    6  C   UNL     1      12.051  -0.970  23.441  1.00  0.00    -0.002 C 
HETATM    7  C   UNL     1      11.321  -1.584  23.017  1.00  0.00    -0.003 C 
HETATM    8  C   UNL     1       9.039  -0.947  22.437  1.00  0.00     0.040 A 
ENDROOT
BRANCH   8   9
HETATM    9  C   UNL     1       8.551  -0.338  21.339  1.00  0.00     0.254 C 
HETATM   10  O   UNL     1       9.276   0.319  20.733  1.00  0.00    -0.268 OA
HETATM   11  N   UNL     1       7.266  -0.611  21.196  1.00  0.00    -0.324 N 
ATOM     12  HN  UNL     1       6.777  -1.165  21.899  1.00  0.00     0.169 HD
BRANCH  11  13
HETATM   13  C   UNL     1       6.667  -0.194  20.214  1.00  0.00     0.046 A 
HETATM   14  C   UNL     1       6.319  -0.500  18.980  1.00  0.00     0.154 A 
HETATM   15  N   UNL     1       5.847  -0.406  17.865  1.00  0.00    -0.400 N 
HETATM   16  C   UNL     1       5.394   0.825  18.176  1.00  0.00     0.129 A 
ATOM     17  HN  UNL     1       5.809  -1.005  17.041  1.00  0.00     0.154 HD
HETATM   18  C   UNL     1       5.468   1.501  19.203  1.00  0.00     0.012 A 
HETATM   19  C   UNL     1       5.983   1.296  20.390  1.00  0.00    -0.022 A 
HETATM   20  C   UNL     1       6.034   1.949  21.429  1.00  0.00     0.025 C 
ENDBRANCH  11  13
ENDBRANCH   8   9
BRANCH   1  21
HETATM   21  C   UNL     1       8.484  -3.483  23.821  1.00  0.00     0.109 C 
BRANCH  21  22
HETATM   22  N   UNL     1       7.863  -4.449  23.936  1.00  0.00    -0.295 N 
ATOM     23  HN  UNL     1       7.943  -4.929  24.832  1.00  0.00     0.177 HD
BRANCH  22  24
HETATM   24  S   UNL     1       6.863  -5.148  22.827  1.00  0.00     0.226 S 
HETATM   25  C   UNL     1       5.625  -5.830  23.811  1.00  0.00     0.186 C 
HETATM   26  O   UNL     1       6.263  -4.136  21.968  1.00  0.00    -0.206 OA
HETATM   27  O   UNL     1       7.452  -6.220  22.092  1.00  0.00    -0.206 OA
ENDBRANCH  22  24
ENDBRANCH  21  22
ENDBRANCH   1  21
TORSDOF 5
ENDMDL
MODEL 2
REMARK VINA RESULT:    -7.733      2.458      5.987
REMARK INTER + INTRA:         -10.728
REMARK INTER:                  -9.790
REMARK INTRA:                  -0.938
REMARK UNBOUND:                -0.734
REMARK  5 active torsions:
REMARK  status: ('A' for Active; 'I' for Inactive)
REMARK    1  A    between atoms: S_2  and  N_5 
REMARK    2  A    between atoms: N_5  and  C_7 
REMARK    3  A    between atoms: C_7  and  C_8 
REMARK    4  A    between atoms: C_15  and  C_16 
REMARK       I    between atoms: C_16  and  N_18 
REMARK    5  A    between atoms: N_18  and  C_20 
ROOT
HETATM    1  C   UNL     1       9.252  -0.022  23.058  1.00  0.00    -0.008 A 
HETATM    2  C   UNL     1      10.308  -0.646  23.561  1.00  0.00     0.058 A 
HETATM    3  C   UNL     1      11.491  -1.457  22.806  1.00  0.00    -0.003 C 
HETATM    4  C   UNL     1      12.530  -1.457  23.085  1.00  0.00    -0.002 C 
HETATM    5  C   UNL     1      13.221  -0.736  24.066  1.00  0.00    -0.001 C 
HETATM    6  C   UNL     1      12.382   0.200  24.652  1.00  0.00    -0.002 C 
HETATM    7  C   UNL     1      11.357   0.392  24.593  1.00  0.00    -0.003 C 
HETATM    8  C   UNL     1       9.581  -1.253  24.306  1.00  0.00     0.040 A 
ENDROOT
BRANCH   8   9
HETATM    9  C   UNL     1       8.946  -2.025  25.210  1.00  0.00     0.254 C 
HETATM   10  O   UNL     1       8.739  -1.565  26.245  1.00  0.00    -0.268 OA
HETATM   11  N   UNL     1       8.707  -3.222  24.705  1.00  0.00    -0.324 N 
ATOM     12  HN  UNL     1       9.045  -3.464  23.773  1.00  0.00     0.169 HD
BRANCH  11  13
HETATM   13  C   UNL     1       8.078  -4.040  25.363  1.00  0.00     0.046 A 
HETATM   14  C   UNL     1       8.183  -4.908  26.349  1.00  0.00     0.154 A 
HETATM   15  N   UNL     1       7.891  -5.771  27.152  1.00  0.00    -0.400 N 
HETATM   16  C   UNL     1       6.635  -5.780  26.666  1.00  0.00     0.129 A 
ATOM     17  HN  UNL     1       8.389  -6.276  27.885  1.00  0.00     0.154 HD
HETATM   18  C   UNL     1       6.086  -5.135  25.772  1.00  0.00     0.012 A 
HETATM   19  C   UNL     1       6.485  -4.183  24.963  1.00  0.00    -0.022 A 
HETATM   20  C   UNL     1       5.938  -3.512  24.092  1.00  0.00     0.025 C 
ENDBRANCH  11  13
ENDBRANCH   8   9
BRANCH   1  21
HETATM   21  C   UNL     1       8.724   0.720  22.299  1.00  0.00     0.109 C 
BRANCH  21  22
HETATM   22  N   UNL     1       7.989   1.113  21.501  1.00  0.00    -0.295 N 
ATOM     23  HN  UNL     1       7.819   2.118  21.505  1.00  0.00     0.177 HD
BRANCH  22  24
HETATM   24  S   UNL     1       7.180   0.246  20.356  1.00  0.00     0.226 S 
HETATM   25  C   UNL     1       5.795   1.223  20.050  1.00  0.00     0.186 C 
HETATM   26  O   UNL     1       7.961   0.160  19.130  1.00  0.00    -0.206 OA
HETATM   27  O   UNL     1       6.705  -1.024  20.801  1.00  0.00    -0.206 OA
ENDBRANCH  22  24
ENDBRANCH  21  22
ENDBRANCH   1  21
TORSDOF 5
ENDMDL
MODEL 3
REMARK VINA RESULT:    -7.404      4.046      6.206
REMARK INTER + INTRA:         -10.302
REMARK INTER:                  -9.545
REMARK INTRA:                  -0.756
REMARK UNBOUND:                -0.734
REMARK  5 active torsions:
REMARK  status: ('A' for Active; 'I' for Inactive)
REMARK    1  A    between atoms: S_2  and  N_5 
REMARK    2  A    between atoms: N_5  and  C_7 
REMARK    3  A    between atoms: C_7  and  C_8 
REMARK    4  A    between atoms: C_15  and  C_16 
REMARK       I    between atoms: C_16  and  N_18 
REMARK    5  A    between atoms: N_18  and  C_20 
ROOT
HETATM    1  C   UNL     1       7.367  -4.652  25.563  1.00  0.00    -0.008 A 
HETATM    2  C   UNL     1       7.171  -4.624  24.252  1.00  0.00     0.058 A 
HETATM    3  C   UNL     1       7.673  -5.655  23.106  1.00  0.00    -0.003 C 
HETATM    4  C   UNL     1       7.109  -5.954  22.240  1.00  0.00    -0.002 C 
HETATM    5  C   UNL     1       5.795  -5.672  21.852  1.00  0.00    -0.001 C 
HETATM    6  C   UNL     1       5.136  -4.986  22.861  1.00  0.00    -0.002 C 
HETATM    7  C   UNL     1       5.439  -4.558  23.765  1.00  0.00    -0.003 C 
HETATM    8  C   UNL     1       7.583  -3.492  24.225  1.00  0.00     0.040 A 
ENDROOT
BRANCH   8   9
HETATM    9  C   UNL     1       8.007  -2.235  23.985  1.00  0.00     0.254 C 
HETATM   10  O   UNL     1       7.352  -1.578  23.304  1.00  0.00    -0.268 OA
HETATM   11  N   UNL     1       9.162  -2.017  24.589  1.00  0.00    -0.324 N 
ATOM     12  HN  UNL     1       9.627  -2.771  25.096  1.00  0.00     0.169 HD
BRANCH  11  13
HETATM   13  C   UNL     1       9.669  -0.906  24.536  1.00  0.00     0.046 A 
HETATM   14  C   UNL     1       9.567   0.325  24.996  1.00  0.00     0.154 A 
HETATM   15  N   UNL     1       9.787   1.507  25.164  1.00  0.00    -0.400 N 
HETATM   16  C   UNL     1      10.822   1.424  24.306  1.00  0.00     0.129 A 
ATOM     17  HN  UNL     1       9.365   2.251  25.721  1.00  0.00     0.154 HD
HETATM   18  C   UNL     1      11.292   0.486  23.660  1.00  0.00     0.012 A 
HETATM   19  C   UNL     1      10.998  -0.788  23.566  1.00  0.00    -0.022 A 
HETATM   20  C   UNL     1      11.479  -1.736  22.952  1.00  0.00     0.025 C 
ENDBRANCH  11  13
ENDBRANCH   8   9
BRANCH   1  21
HETATM   21  C   UNL     1       7.376  -5.188  26.620  1.00  0.00     0.109 C 
BRANCH  21  22
HETATM   22  N   UNL     1       7.462  -6.024  27.411  1.00  0.00    -0.295 N 
ATOM     23  HN  UNL     1       8.246  -6.666  27.301  1.00  0.00     0.177 HD
BRANCH  22  24
HETATM   24  S   UNL     1       6.469  -6.307  28.696  1.00  0.00     0.226 S 
HETATM   25  C   UNL     1       4.928  -6.493  27.950  1.00  0.00     0.186 C 
HETATM   26  O   UNL     1       6.818  -7.563  29.347  1.00  0.00    -0.206 OA
HETATM   27  O   UNL     1       6.362  -5.219  29.612  1.00  0.00    -0.206 OA
ENDBRANCH  22  24
ENDBRANCH  21  22
ENDBRANCH   1  21
TORSDOF 5
ENDMDL
MODEL 4
REMARK VINA RESULT:    -7.199      2.694      6.260
REMARK INTER + INTRA:         -10.038
REMARK INTER:                  -9.208
REMARK INTRA:                  -0.830
REMARK UNBOUND:                -0.734
REMARK  5 active torsions:
REMARK  status: ('A' for Active; 'I' for Inactive)
REMARK    1  A    between atoms: S_2  and  N_5 
REMARK    2  A    between atoms: N_5  and  C_7 
REMARK    3  A    between atoms: C_7  and  C_8 
REMARK    4  A    between atoms: C_15  and  C_16 
REMARK       I    between atoms: C_16  and  N_18 
REMARK    5  A    between atoms: N_18  and  C_20 
ROOT
HETATM    1  C   UNL     1       6.074  -2.295  21.066  1.00  0.00    -0.008 A 
HETATM    2  C   UNL     1       6.077  -3.214  22.021  1.00  0.00     0.058 A 
HETATM    3  C   UNL     1       4.883  -3.687  23.010  1.00  0.00    -0.003 C 
HETATM    4  C   UNL     1       4.700  -4.696  23.335  1.00  0.00    -0.002 C 
HETATM    5  C   UNL     1       5.309  -5.905  22.980  1.00  0.00    -0.001 C 
HETATM    6  C   UNL     1       6.208  -5.701  21.943  1.00  0.00    -0.002 C 
HETATM    7  C   UNL     1       6.588  -4.851  21.470  1.00  0.00    -0.003 C 
HETATM    8  C   UNL     1       7.049  -2.692  22.505  1.00  0.00     0.040 A 
ENDROOT
BRANCH   8   9
HETATM    9  C   UNL     1       8.125  -2.261  23.194  1.00  0.00     0.254 C 
HETATM   10  O   UNL     1       8.799  -3.061  23.674  1.00  0.00    -0.268 OA
HETATM   11  N   UNL     1       8.167  -0.941  23.201  1.00  0.00    -0.324 N 
ATOM     12  HN  UNL     1       7.416  -0.400  22.772  1.00  0.00     0.169 HD
BRANCH  11  13
HETATM   13  C   UNL     1       9.113  -0.371  23.727  1.00  0.00     0.046 A 
HETATM   14  C   UNL     1       9.685  -0.123  24.888  1.00  0.00     0.154 A 
HETATM   15  N   UNL     1      10.457   0.320  25.714  1.00  0.00    -0.400 N 
HETATM   16  C   UNL     1      11.151   0.918  24.726  1.00  0.00     0.129 A 
ATOM     17  HN  UNL     1      10.543   0.263  26.729  1.00  0.00     0.154 HD
HETATM   18  C   UNL     1      10.998   0.946  23.504  1.00  0.00     0.012 A 
HETATM   19  C   UNL     1      10.134   0.399  22.684  1.00  0.00    -0.022 A 
HETATM   20  C   UNL     1       9.992   0.394  21.465  1.00  0.00     0.025 C 
ENDBRANCH  11  13
ENDBRANCH   8   9
BRANCH   1  21
HETATM   21  C   UNL     1       5.618  -1.768  20.107  1.00  0.00     0.109 C 
BRANCH  21  22
HETATM   22  N   UNL     1       5.474  -1.001  19.257  1.00  0.00    -0.295 N 
ATOM     23  HN  UNL     1       4.719  -1.197  18.600  1.00  0.00     0.177 HD
BRANCH  22  24
HETATM   24  S   UNL     1       6.340   0.373  18.975  1.00  0.00     0.226 S 
HETATM   25  C   UNL     1       6.059   1.297  20.401  1.00  0.00     0.186 C 
HETATM   26  O   UNL     1       7.764   0.074  18.895  1.00  0.00    -0.206 OA
HETATM   27  O   UNL     1       5.873   1.151  17.874  1.00  0.00    -0.206 OA
ENDBRANCH  22  24
ENDBRANCH  21  22
ENDBRANCH   1  21
TORSDOF 5
ENDMDL
MODEL 5
REMARK VINA RESULT:    -7.195      2.179      2.485
REMARK INTER + INTRA:         -10.032
REMARK INTER:                  -9.145
REMARK INTRA:                  -0.887
REMARK UNBOUND:                -0.734
REMARK  5 active torsions:
REMARK  status: ('A' for Active; 'I' for Inactive)
REMARK    1  A    between atoms: S_2  and  N_5 
REMARK    2  A    between atoms: N_5  and  C_7 
REMARK    3  A    between atoms: C_7  and  C_8 
REMARK    4  A    between atoms: C_15  and  C_16 
REMARK       I    between atoms: C_16  and  N_18 
REMARK    5  A    between atoms: N_18  and  C_20 
ROOT
HETATM    1  C   UNL     1       8.898  -1.980  24.732  1.00  0.00    -0.008 A 
HETATM    2  C   UNL     1       9.705  -1.026  24.289  1.00  0.00     0.058 A 
HETATM    3  C   UNL     1      10.475   0.143  25.107  1.00  0.00    -0.003 C 
HETATM    4  C   UNL     1      11.467   0.505  24.900  1.00  0.00    -0.002 C 
HETATM    5  C   UNL     1      12.433   0.075  23.984  1.00  0.00    -0.001 C 
HETATM    6  C   UNL     1      12.016  -1.092  23.361  1.00  0.00    -0.002 C 
HETATM    7  C   UNL     1      11.120  -1.629  23.354  1.00  0.00    -0.003 C 
HETATM    8  C   UNL     1       8.867  -0.705  23.484  1.00  0.00     0.040 A 
ENDROOT
BRANCH   8   9
HETATM    9  C   UNL     1       8.070  -0.198  22.523  1.00  0.00     0.254 C 
HETATM   10  O   UNL     1       7.528   0.791  22.754  1.00  0.00    -0.268 OA
HETATM   11  N   UNL     1       8.051  -0.999  21.473  1.00  0.00    -0.324 N 
ATOM     12  HN  UNL     1       8.551  -1.888  21.495  1.00  0.00     0.169 HD
BRANCH  11  13
HETATM   13  C   UNL     1       7.428  -0.667  20.473  1.00  0.00     0.046 A 
HETATM   14  C   UNL     1       7.461   0.130  19.424  1.00  0.00     0.154 A 
HETATM   15  N   UNL     1       7.127   0.693  18.402  1.00  0.00    -0.400 N 
HETATM   16  C   UNL     1       5.986  -0.022  18.397  1.00  0.00     0.129 A 
ATOM     17  HN  UNL     1       7.537   1.408  17.801  1.00  0.00     0.154 HD
HETATM   18  C   UNL     1       5.543  -0.885  19.156  1.00  0.00     0.012 A 
HETATM   19  C   UNL     1       6.002  -1.461  20.240  1.00  0.00    -0.022 A 
HETATM   20  C   UNL     1       5.584  -2.344  20.986  1.00  0.00     0.025 C 
ENDBRANCH  11  13
ENDBRANCH   8   9
BRANCH   1  21
HETATM   21  C   UNL     1       8.608  -2.862  25.468  1.00  0.00     0.109 C 
BRANCH  21  22
HETATM   22  N   UNL     1       8.483  -3.462  26.446  1.00  0.00    -0.295 N 
ATOM     23  HN  UNL     1       8.735  -2.974  27.305  1.00  0.00     0.177 HD
BRANCH  22  24
HETATM   24  S   UNL     1       7.947  -5.010  26.623  1.00  0.00     0.226 S 
HETATM   25  C   UNL     1       6.509  -5.024  25.676  1.00  0.00     0.186 C 
HETATM   26  O   UNL     1       8.892  -5.951  26.036  1.00  0.00    -0.206 OA
HETATM   27  O   UNL     1       7.574  -5.359  27.956  1.00  0.00    -0.206 OA
ENDBRANCH  22  24
ENDBRANCH  21  22
ENDBRANCH   1  21
TORSDOF 5
ENDMDL
MODEL 6
REMARK VINA RESULT:    -6.894      2.848      5.846
REMARK INTER + INTRA:          -9.642
REMARK INTER:                  -8.727
REMARK INTRA:                  -0.916
REMARK UNBOUND:                -0.734
REMARK  5 active torsions:
REMARK  status: ('A' for Active; 'I' for Inactive)
REMARK    1  A    between atoms: S_2  and  N_5 
REMARK    2  A    between atoms: N_5  and  C_7 
REMARK    3  A    between atoms: C_7  and  C_8 
REMARK    4  A    between atoms: C_15  and  C_16 
REMARK       I    between atoms: C_16  and  N_18 
REMARK    5  A    between atoms: N_18  and  C_20 
ROOT
HETATM    1  C   UNL     1       8.437   0.415  21.277  1.00  0.00    -0.008 A 
HETATM    2  C   UNL     1       9.193   0.836  22.281  1.00  0.00     0.058 A 
HETATM    3  C   UNL     1      10.557   1.711  22.256  1.00  0.00    -0.003 C 
HETATM    4  C   UNL     1      10.826   2.474  22.965  1.00  0.00    -0.002 C 
HETATM    5  C   UNL     1      10.118   3.029  24.037  1.00  0.00    -0.001 C 
HETATM    6  C   UNL     1       8.816   2.551  24.048  1.00  0.00    -0.002 C 
HETATM    7  C   UNL     1       8.311   1.810  23.512  1.00  0.00    -0.003 C 
HETATM    8  C   UNL     1       9.243  -0.293  22.702  1.00  0.00     0.040 A 
ENDROOT
BRANCH   8   9
HETATM    9  C   UNL     1       9.421  -1.472  23.328  1.00  0.00     0.254 C 
HETATM   10  O   UNL     1      10.470  -1.944  23.280  1.00  0.00    -0.268 OA
HETATM   11  N   UNL     1       8.286  -1.879  23.870  1.00  0.00    -0.324 N 
ATOM     12  HN  UNL     1       7.429  -1.343  23.733  1.00  0.00     0.169 HD
BRANCH  11  13
HETATM   13  C   UNL     1       8.271  -2.904  24.538  1.00  0.00     0.046 A 
HETATM   14  C   UNL     1       8.505  -3.384  25.743  1.00  0.00     0.154 A 
HETATM   15  N   UNL     1       8.623  -4.170  26.660  1.00  0.00    -0.400 N 
HETATM   16  C   UNL     1       8.231  -5.165  25.840  1.00  0.00     0.129 A 
ATOM     17  HN  UNL     1       8.901  -4.105  27.639  1.00  0.00     0.154 HD
HETATM   18  C   UNL     1       7.899  -5.181  24.654  1.00  0.00     0.012 A 
HETATM   19  C   UNL     1       7.771  -4.255  23.735  1.00  0.00    -0.022 A 
HETATM   20  C   UNL     1       7.410  -4.255  22.561  1.00  0.00     0.025 C 
ENDBRANCH  11  13
ENDBRANCH   8   9
BRANCH   1  21
HETATM   21  C   UNL     1       7.839   0.571  20.265  1.00  0.00     0.109 C 
BRANCH  21  22
HETATM   22  N   UNL     1       7.340   0.331  19.252  1.00  0.00    -0.295 N 
ATOM     23  HN  UNL     1       7.939   0.404  18.430  1.00  0.00     0.177 HD
BRANCH  22  24
HETATM   24  S   UNL     1       5.778  -0.114  18.974  1.00  0.00     0.226 S 
HETATM   25  C   UNL     1       5.624  -1.556  19.902  1.00  0.00     0.186 C 
HETATM   26  O   UNL     1       4.857   0.879  19.512  1.00  0.00    -0.206 OA
HETATM   27  O   UNL     1       5.493  -0.457  17.618  1.00  0.00    -0.206 OA
ENDBRANCH  22  24
ENDBRANCH  21  22
ENDBRANCH   1  21
TORSDOF 5
ENDMDL
MODEL 7
REMARK VINA RESULT:    -6.828      3.306      6.622
REMARK INTER + INTRA:          -9.558
REMARK INTER:                  -8.735
REMARK INTRA:                  -0.823
REMARK UNBOUND:                -0.734
REMARK  5 active torsions:
REMARK  status: ('A' for Active; 'I' for Inactive)
REMARK    1  A    between atoms: S_2  and  N_5 
REMARK    2  A    between atoms: N_5  and  C_7 
REMARK    3  A    between atoms: C_7  and  C_8 
REMARK    4  A    between atoms: C_15  and  C_16 
REMARK       I    between atoms: C_16  and  N_18 
REMARK    5  A    between atoms: N_18  and  C_20 
ROOT
HETATM    1  C   UNL     1       8.149   0.915  21.631  1.00  0.00    -0.008 A 
HETATM    2  C   UNL     1       7.170   0.459  20.861  1.00  0.00     0.058 A 
HETATM    3  C   UNL     1       5.701   1.080  20.575  1.00  0.00    -0.003 C 
HETATM    4  C   UNL     1       5.186   1.065  19.630  1.00  0.00    -0.002 C 
HETATM    5  C   UNL     1       5.593   0.628  18.365  1.00  0.00    -0.001 C 
HETATM    6  C   UNL     1       6.937   0.284  18.387  1.00  0.00    -0.002 C 
HETATM    7  C   UNL     1       7.646   0.182  19.147  1.00  0.00    -0.003 C 
HETATM    8  C   UNL     1       7.243  -0.607  21.419  1.00  0.00     0.040 A 
ENDROOT
BRANCH   8   9
HETATM    9  C   UNL     1       7.167  -1.859  21.912  1.00  0.00     0.254 C 
HETATM   10  O   UNL     1       8.157  -2.383  22.179  1.00  0.00    -0.268 OA
HETATM   11  N   UNL     1       5.908  -2.257  21.962  1.00  0.00    -0.324 N 
ATOM     12  HN  UNL     1       5.165  -1.659  21.601  1.00  0.00     0.169 HD
BRANCH  11  13
HETATM   13  C   UNL     1       5.639  -3.348  22.445  1.00  0.00     0.046 A 
HETATM   14  C   UNL     1       5.556  -4.634  22.169  1.00  0.00     0.154 A 
HETATM   15  N   UNL     1       5.352  -5.824  22.301  1.00  0.00    -0.400 N 
HETATM   16  C   UNL     1       5.005  -5.608  23.585  1.00  0.00     0.129 A 
ATOM     17  HN  UNL     1       5.417  -6.642  21.695  1.00  0.00     0.154 HD
HETATM   18  C   UNL     1       4.951  -4.586  24.270  1.00  0.00     0.012 A 
HETATM   19  C   UNL     1       5.227  -3.325  24.042  1.00  0.00    -0.022 A 
HETATM   20  C   UNL     1       5.208  -2.305  24.725  1.00  0.00     0.025 C 
ENDBRANCH  11  13
ENDBRANCH   8   9
BRANCH   1  21
HETATM   21  C   UNL     1       8.875   1.764  22.025  1.00  0.00     0.109 C 
BRANCH  21  22
HETATM   22  N   UNL     1       9.832   2.394  22.165  1.00  0.00    -0.295 N 
ATOM     23  HN  UNL     1      10.301   2.691  21.310  1.00  0.00     0.177 HD
BRANCH  22  24
HETATM   24  S   UNL     1      10.533   2.871  23.579  1.00  0.00     0.226 S 
HETATM   25  C   UNL     1       9.259   3.724  24.364  1.00  0.00     0.186 C 
HETATM   26  O   UNL     1      10.882   1.715  24.394  1.00  0.00    -0.206 OA
HETATM   27  O   UNL     1      11.616   3.787  23.423  1.00  0.00    -0.206 OA
ENDBRANCH  22  24
ENDBRANCH  21  22
ENDBRANCH   1  21
TORSDOF 5
ENDMDL
MODEL 8
REMARK VINA RESULT:    -6.742      4.109      6.220
REMARK INTER + INTRA:          -9.446
REMARK INTER:                  -8.870
REMARK INTRA:                  -0.577
REMARK UNBOUND:                -0.734
REMARK  5 active torsions:
REMARK  status: ('A' for Active; 'I' for Inactive)
REMARK    1  A    between atoms: S_2  and  N_5 
REMARK    2  A    between atoms: N_5  and  C_7 
REMARK    3  A    between atoms: C_7  and  C_8 
REMARK    4  A    between atoms: C_15  and  C_16 
REMARK       I    between atoms: C_16  and  N_18 
REMARK    5  A    between atoms: N_18  and  C_20 
ROOT
HETATM    1  C   UNL     1       8.006   1.250  22.078  1.00  0.00    -0.008 A 
HETATM    2  C   UNL     1       8.675   0.424  22.870  1.00  0.00     0.058 A 
HETATM    3  C   UNL     1       8.137  -0.540  24.057  1.00  0.00    -0.003 C 
HETATM    4  C   UNL     1       8.505  -1.526  24.280  1.00  0.00    -0.002 C 
HETATM    5  C   UNL     1       9.444  -2.331  23.625  1.00  0.00    -0.001 C 
HETATM    6  C   UNL     1       9.830  -1.739  22.431  1.00  0.00    -0.002 C 
HETATM    7  C   UNL     1       9.657  -0.806  21.995  1.00  0.00    -0.003 C 
HETATM    8  C   UNL     1       9.424   1.324  23.159  1.00  0.00     0.040 A 
ENDROOT
BRANCH   8   9
HETATM    9  C   UNL     1      10.358   2.187  23.604  1.00  0.00     0.254 C 
HETATM   10  O   UNL     1      11.321   1.740  24.048  1.00  0.00    -0.268 OA
HETATM   11  N   UNL     1       9.940   3.432  23.458  1.00  0.00    -0.324 N 
ATOM     12  HN  UNL     1       9.001   3.621  23.105  1.00  0.00     0.169 HD
BRANCH  11  13
HETATM   13  C   UNL     1      10.686   4.357  23.750  1.00  0.00     0.046 A 
HETATM   14  C   UNL     1      11.914   4.811  23.601  1.00  0.00     0.154 A 
HETATM   15  N   UNL     1      12.896   5.517  23.708  1.00  0.00    -0.400 N 
HETATM   16  C   UNL     1      12.184   6.367  24.473  1.00  0.00     0.129 A 
ATOM     17  HN  UNL     1      13.855   5.481  23.364  1.00  0.00     0.154 HD
HETATM   18  C   UNL     1      11.013   6.359  24.854  1.00  0.00     0.012 A 
HETATM   19  C   UNL     1       9.999   5.551  24.656  1.00  0.00    -0.022 A 
HETATM   20  C   UNL     1       8.822   5.550  25.004  1.00  0.00     0.025 C 
ENDBRANCH  11  13
ENDBRANCH   8   9
BRANCH   1  21
HETATM   21  C   UNL     1       7.116   1.522  21.345  1.00  0.00     0.109 C 
BRANCH  21  22
HETATM   22  N   UNL     1       6.436   1.508  20.412  1.00  0.00    -0.295 N 
ATOM     23  HN  UNL     1       5.661   2.169  20.413  1.00  0.00     0.177 HD
BRANCH  22  24
HETATM   24  S   UNL     1       6.568   0.547  19.079  1.00  0.00     0.226 S 
HETATM   25  C   UNL     1       5.674  -0.854  19.532  1.00  0.00     0.186 C 
HETATM   26  O   UNL     1       5.907   1.163  17.935  1.00  0.00    -0.206 OA
HETATM   27  O   UNL     1       7.897   0.119  18.786  1.00  0.00    -0.206 OA
ENDBRANCH  22  24
ENDBRANCH  21  22
ENDBRANCH   1  21
TORSDOF 5
ENDMDL
MODEL 9
REMARK VINA RESULT:    -6.709     23.607     26.229
REMARK INTER + INTRA:          -9.403
REMARK INTER:                  -8.536
REMARK INTRA:                  -0.867
REMARK UNBOUND:                -0.734
REMARK  5 active torsions:
REMARK  status: ('A' for Active; 'I' for Inactive)
REMARK    1  A    between atoms: S_2  and  N_5 
REMARK    2  A    between atoms: N_5  and  C_7 
REMARK    3  A    between atoms: C_7  and  C_8 
REMARK    4  A    between atoms: C_15  and  C_16 
REMARK       I    between atoms: C_16  and  N_18 
REMARK    5  A    between atoms: N_18  and  C_20 
ROOT
HETATM    1  C   UNL     1       9.232  16.191   3.306  1.00  0.00    -0.008 A 
HETATM    2  C   UNL     1       8.448  16.632   2.333  1.00  0.00     0.058 A 
HETATM    3  C   UNL     1       7.328  17.804   2.353  1.00  0.00    -0.003 C 
HETATM    4  C   UNL     1       7.131  18.498   1.555  1.00  0.00    -0.002 C 
HETATM    5  C   UNL     1       7.779  18.706   0.333  1.00  0.00    -0.001 C 
HETATM    6  C   UNL     1       8.929  17.934   0.263  1.00  0.00    -0.002 C 
HETATM    7  C   UNL     1       9.332  17.178   0.862  1.00  0.00    -0.003 C 
HETATM    8  C   UNL     1       8.090  15.500   2.123  1.00  0.00     0.040 A 
ENDROOT
BRANCH   8   9
HETATM    9  C   UNL     1       7.569  14.320   1.734  1.00  0.00     0.254 C 
HETATM   10  O   UNL     1       7.921  13.894   0.725  1.00  0.00    -0.268 OA
HETATM   11  N   UNL     1       6.694  13.889   2.626  1.00  0.00    -0.324 N 
ATOM     12  HN  UNL     1       6.461  14.463   3.437  1.00  0.00     0.169 HD
BRANCH  11  13
HETATM   13  C   UNL     1       6.165  12.797   2.472  1.00  0.00     0.046 A 
HETATM   14  C   UNL     1       5.140  12.189   1.909  1.00  0.00     0.154 A 
HETATM   15  N   UNL     1       4.366  11.313   1.581  1.00  0.00    -0.400 N 
HETATM   16  C   UNL     1       5.117  10.417   2.251  1.00  0.00     0.129 A 
ATOM     17  HN  UNL     1       3.509  11.273   1.030  1.00  0.00     0.154 HD
HETATM   18  C   UNL     1       6.157  10.527   2.901  1.00  0.00     0.012 A 
HETATM   19  C   UNL     1       6.952  11.532   3.179  1.00  0.00    -0.022 A 
HETATM   20  C   UNL     1       8.007  11.646   3.798  1.00  0.00     0.025 C 
ENDBRANCH  11  13
ENDBRANCH   8   9
BRANCH   1  21
HETATM   21  C   UNL     1       9.991  16.344   4.204  1.00  0.00     0.109 C 
BRANCH  21  22
HETATM   22  N   UNL     1      10.740  16.858   4.915  1.00  0.00    -0.295 N 
ATOM     23  HN  UNL     1      10.897  16.397   5.811  1.00  0.00     0.177 HD
BRANCH  22  24
HETATM   24  S   UNL     1      11.589  18.248   4.657  1.00  0.00     0.226 S 
HETATM   25  C   UNL     1      11.780  18.875   6.250  1.00  0.00     0.186 C 
HETATM   26  O   UNL     1      12.910  17.950   4.120  1.00  0.00    -0.206 OA
HETATM   27  O   UNL     1      10.891  19.235   3.899  1.00  0.00    -0.206 OA
ENDBRANCH  22  24
ENDBRANCH  21  22
ENDBRANCH   1  21
TORSDOF 5
ENDMDL
