REMARK  5 active torsions:
REMARK  status: ('A' for Active; 'I' for Inactive)
REMARK    1  A    between atoms: S_2  and  N_5 
REMARK    2  A    between atoms: N_5  and  C_7 
REMARK    3  A    between atoms: C_7  and  C_8 
REMARK    4  A    between atoms: C_15  and  C_16 
REMARK       I    between atoms: C_16  and  N_18 
REMARK    5  A    between atoms: N_18  and  C_20 
ROOT
HETATM    1  C   UNL     1       9.387  -1.977  23.521  1.00  0.00    -0.008 A 
HETATM    2  C   UNL     1      10.322  -1.070  23.277  1.00  0.00     0.058 A 
HETATM    3  C   UNL     1      11.068  -0.050  24.292  1.00  0.00    -0.003 C 
HETATM    4  C   UNL     1      12.105   0.233  24.248  1.00  0.00    -0.002 C 
HETATM    5  C   UNL     1      13.148  -0.210  23.427  1.00  0.00    -0.001 C 
HETATM    6  C   UNL     1      12.724  -1.277  22.649  1.00  0.00    -0.002 C 
HETATM    7  C   UNL     1      11.796  -1.725  22.477  1.00  0.00    -0.003 C 
HETATM    8  C   UNL     1       9.630  -0.607  22.405  1.00  0.00     0.040 A 
ENDROOT
BRANCH   8   9
HETATM    9  C   UNL     1       9.015   0.050  21.402  1.00  0.00     0.254 C 
HETATM   10  O   UNL     1       9.542   0.982  20.980  1.00  0.00    -0.268 OA
HETATM   11  N   UNL     1       7.860  -0.525  21.117  1.00  0.00    -0.324 N 
ATOM     12  HN  UNL     1       7.529  -1.316  21.670  1.00  0.00     0.169 HD
BRANCH  11  13
HETATM   13  C   UNL     1       7.190  -0.102  20.185  1.00  0.00     0.046 A 
HETATM   14  C   UNL     1       7.164   0.022  18.873  1.00  0.00     0.154 A 
HETATM   15  N   UNL     1       6.794   0.328  17.758  1.00  0.00    -0.400 N 
HETATM   16  C   UNL     1       5.684   0.875  18.291  1.00  0.00     0.129 A 
ATOM     17  HN  UNL     1       7.167   0.218  16.815  1.00  0.00     0.154 HD
HETATM   18  C   UNL     1       5.282   0.974  19.451  1.00  0.00     0.012 A 
HETATM   19  C   UNL     1       5.748   0.576  20.610  1.00  0.00    -0.022 A 
HETATM   20  C   UNL     1       5.341   0.641  21.767  1.00  0.00     0.025 C 
ENDBRANCH  11  13
ENDBRANCH   8   9
BRANCH   1  21
HETATM   21  C   UNL     1       8.928  -2.886  24.128  1.00  0.00     0.109 C 
BRANCH  21  22
HETATM   22  N   UNL     1       8.149  -3.555  24.655  1.00  0.00    -0.295 N 
ATOM     23  HN  UNL     1       7.277  -3.710  24.150  1.00  0.00     0.177 HD
BRANCH  22  24
HETATM   24  S   UNL     1       8.275  -4.290  26.125  1.00  0.00     0.226 S 
HETATM   25  C   UNL     1       6.662  -4.814  26.426  1.00  0.00     0.186 C 
HETATM   26  O   UNL     1       9.131  -5.466  26.039  1.00  0.00    -0.206 OA
HETATM   27  O   UNL     1       8.638  -3.417  27.194  1.00  0.00    -0.206 OA
ENDBRANCH  22  24
ENDBRANCH  21  22
ENDBRANCH   1  21
TORSDOF 5
