stable:False satoms:7 tatoms:24 sratio:0.2916666666666667
  -OEChem-07092417463D

 24 27  0     1  0  0  0  0  0999 V2000
    6.6615   -4.8144   26.4257 C   0  0  0  0  0  0  0  0  0  0  0  0
    8.2750   -4.2896   26.1252 S   0  0  0  0  0  0  0  0  0  0  0  0
    9.1310   -5.4660   26.0388 O   0  0  0  0  0  0  0  0  0  0  0  0
    8.6377   -3.4171   27.1943 O   0  0  0  0  0  0  0  0  0  0  0  0
    8.1491   -3.5549   24.6550 N   0  0  0  0  0  0  0  0  0  0  0  0
    8.9277   -2.8863   24.1279 C   0  0  0  0  0  0  0  0  0  0  0  0
    9.3874   -1.9772   23.5215 C   0  0  0  0  0  0  0  0  0  0  0  0
   10.3223   -1.0698   23.2766 C   0  0  1  0  0  0  0  0  0  0  0  0
   11.0680   -0.0501   24.2917 C   0  0  0  0  0  0  0  0  0  0  0  0
   12.1050    0.2332   24.2476 C   0  0  0  0  0  0  0  0  0  0  0  0
   13.1484   -0.2100   23.4275 C   0  0  0  0  0  0  0  0  0  0  0  0
   12.7244   -1.2770   22.6492 C   0  0  0  0  0  0  0  0  0  0  0  0
   11.7960   -1.7248   22.4774 C   0  0  0  0  0  0  0  0  0  0  0  0
    9.6304   -0.6072   22.4046 C   0  0  3  0  0  0  0  0  0  0  0  0
    9.0153    0.0503   21.4022 C   0  0  0  0  0  0  0  0  0  0  0  0
    9.5416    0.9822   20.9796 O   0  0  0  0  0  0  0  0  0  0  0  0
    7.8602   -0.5253   21.1171 N   0  0  0  0  0  0  0  0  0  0  0  0
    7.1902   -0.1021   20.1853 C   0  0  0  0  0  0  0  0  0  0  0  0
    7.1637    0.0225   18.8730 C   0  0  0  0  0  0  0  0  0  0  0  0
    6.7941    0.3277   17.7579 N   0  0  0  0  0  0  0  0  0  0  0  0
    5.6838    0.8749   18.2905 C   0  0  0  0  0  0  0  0  0  0  0  0
    5.2824    0.9743   19.4507 C   0  0  0  0  0  0  0  0  0  0  0  0
    5.7482    0.5756   20.6104 C   0  0  0  0  0  0  0  0  0  0  0  0
    5.3406    0.6409   21.7670 C   0  0  0  0  0  0  0  0  0  0  0  0
 20 21  2  0  0  0  0
 19 20  1  0  0  0  0
 19 21  1  0  0  0  0
 21 22  1  0  0  0  0
 18 19  2  0  0  0  0
 22 23  2  0  0  0  0
 18 23  1  0  0  0  0
 17 18  1  0  0  0  0
 23 24  1  0  0  0  0
 15 16  2  0  0  0  0
 15 17  1  0  0  0  0
 14 15  1  0  0  0  0
  8 14  1  0  0  0  0
  7 14  1  0  0  0  0
 12 13  1  0  0  0  0
  8 13  1  0  0  0  0
 11 12  2  0  0  0  0
  7  8  1  0  0  0  0
  8  9  1  0  0  0  0
 10 11  1  0  0  0  0
  6  7  2  3  0  0  0
  5  6  1  0  0  0  0
  9 10  2  0  0  0  0
  2  5  1  0  0  0  0
  2  3  2  0  0  0  0
  1  2  1  0  0  0  0
  2  4  2  0  0  0  0
M  END
> <Shapegauss>
-286.105377

$$$$
