stable:False satoms:9 tatoms:24 sratio:0.375
  -OEChem-07092417453D

 24 25  0     1  0  0  0  0  0999 V2000
    6.6032   -4.8333   26.3933 C   0  0  0  0  0  0  0  0  0  0  0  0
    8.1959   -4.2643   26.1058 S   0  0  0  0  0  0  0  0  0  0  0  0
    9.0622   -5.4114   26.0392 O   0  0  0  0  0  0  0  0  0  0  0  0
    8.5929   -3.3814   27.1521 O   0  0  0  0  0  0  0  0  0  0  0  0
    8.0952   -3.5681   24.6661 N   0  0  0  0  0  0  0  0  0  0  0  0
    8.9395   -2.9122   24.1238 C   0  0  0  0  0  0  0  0  0  0  0  0
    9.4525   -1.9919   23.5233 C   0  0  0  0  0  0  0  0  0  0  0  0
   10.3517   -1.1337   23.2293 C   0  0  1  0  0  0  0  0  0  0  0  0
   11.0667   -0.0662   24.3097 C   0  0  0  0  0  0  0  0  0  0  0  0
   12.0823    0.2807   24.3509 C   0  0  0  0  0  0  0  0  0  0  0  0
   13.1109   -0.2984   23.4147 C   0  0  0  0  0  0  0  0  0  0  0  0
   12.7487   -1.1976   22.7073 C   0  0  0  0  0  0  0  0  0  0  0  0
   11.7700   -1.7017   22.5091 C   0  0  0  0  0  0  0  0  0  0  0  0
    9.7112   -0.5723   22.3313 C   0  0  0  0  0  0  0  0  0  0  0  0
    9.0490    0.0785   21.4066 C   0  0  0  0  0  0  0  0  0  0  0  0
    9.5400    1.0153   20.9733 O   0  0  0  0  0  0  0  0  0  0  0  0
    7.8862   -0.5212   21.1455 N   0  0  0  0  0  0  0  0  0  0  0  0
    7.1928   -0.0753   20.2190 C   0  0  0  0  0  0  0  0  0  0  0  0
    7.2267    0.0128   18.9267 C   0  0  0  0  0  0  0  0  0  0  0  0
    6.7495    0.2586   17.8374 N   0  0  0  0  0  0  0  0  0  0  0  0
    5.6472    0.7948   18.2749 C   0  0  0  0  0  0  0  0  0  0  0  0
    5.2436    0.9396   19.4450 C   0  0  0  0  0  0  0  0  0  0  0  0
    5.7941    0.5766   20.6183 C   0  0  0  0  0  0  0  0  0  0  0  0
    5.4719    0.6821   21.5943 C   0  0  0  0  0  0  0  0  0  0  0  0
 20 21  2  0  0  0  0
 19 20  1  0  0  0  0
 21 22  1  0  0  0  0
 18 19  2  0  0  0  0
 22 23  2  0  0  0  0
 18 23  1  0  0  0  0
 17 18  1  0  0  0  0
 23 24  1  0  0  0  0
 15 16  2  0  0  0  0
 15 17  1  0  0  0  0
 14 15  1  0  0  0  0
  8 14  1  0  0  0  0
 12 13  1  0  0  0  0
  8 13  1  0  0  0  0
 11 12  2  0  0  0  0
  7  8  1  0  0  0  0
  8  9  1  0  0  0  0
 10 11  1  0  0  0  0
  6  7  3  0  0  0  0
  5  6  1  0  0  0  0
  9 10  2  0  0  0  0
  2  5  1  0  0  0  0
  2  3  2  0  0  0  0
  1  2  1  0  0  0  0
  2  4  2  0  0  0  0
M  END
> <Shapegauss>
-288.202606

$$$$
