stable:False satoms:9 tatoms:24 sratio:0.375
  -OEChem-08062413473D

 43 44  0     1  0  0  0  0  0999 V2000
    6.5811   -5.0930   26.2399 C   0  0  0  0  0  0  0  0  0  0  0  0
    8.1686   -4.4638   26.0758 S   0  0  0  0  0  0  0  0  0  0  0  0
    9.0744   -5.5800   26.0109 O   0  0  0  0  0  0  0  0  0  0  0  0
    8.4735   -3.6191   27.1828 O   0  0  0  0  0  0  0  0  0  0  0  0
    8.1310   -3.7045   24.6652 N   0  0  0  0  0  0  0  0  0  0  0  0
    8.9842   -2.9990   24.2053 C   0  0  0  0  0  0  0  0  0  0  0  0
    9.5016   -2.0368   23.6790 C   0  0  0  0  0  0  0  0  0  0  0  0
   10.3882   -1.1392   23.4791 C   0  0  1  0  0  0  0  0  0  0  0  0
   11.0023   -0.1023   24.6477 C   0  0  0  0  0  0  0  0  0  0  0  0
   12.0017    0.2726   24.7663 C   0  0  0  0  0  0  0  0  0  0  0  0
   13.1026   -0.2312   23.8695 C   0  0  0  0  0  0  0  0  0  0  0  0
   12.8128   -1.1068   23.1018 C   0  0  0  0  0  0  0  0  0  0  0  0
   11.8647   -1.6303   22.8220 C   0  0  0  0  0  0  0  0  0  0  0  0
    9.7842   -0.5560   22.5697 C   0  0  0  0  0  0  0  0  0  0  0  0
    9.1573    0.1171   21.6364 C   0  0  0  0  0  0  0  0  0  0  0  0
    9.6423    1.0874   21.2762 O   0  0  0  0  0  0  0  0  0  0  0  0
    8.0324   -0.5044   21.2783 N   0  0  0  0  0  0  0  0  0  0  0  0
    7.3812   -0.0367   20.3322 C   0  0  0  0  0  0  0  0  0  0  0  0
    7.4890    0.1125   19.0496 C   0  0  0  0  0  0  0  0  0  0  0  0
    7.0697    0.3945   17.9453 N   0  0  0  0  0  0  0  0  0  0  0  0
    5.9264    0.8764   18.3383 C   0  0  0  0  0  0  0  0  0  0  0  0
    5.4493    0.9543   19.4869 C   0  0  0  0  0  0  0  0  0  0  0  0
    5.9406    0.5536   20.6742 C   0  0  0  0  0  0  0  0  0  0  0  0
    5.5576    0.6038   21.6325 C   0  0  0  0  0  0  0  0  0  0  0  0
    6.4997   -5.6409   27.1903 H   0  0  0  0  0  0  0  0  0  0  0  0
    5.8561   -4.2658   26.2304 H   0  0  0  0  0  0  0  0  0  0  0  0
    6.3692   -5.7759   25.4039 H   0  0  0  0  0  0  0  0  0  0  0  0
    7.3134   -3.1300   24.7029 H   0  0  0  0  0  0  0  0  0  0  0  0
   10.2905    0.2362   25.3861 H   0  0  0  0  0  0  0  0  0  0  0  0
   12.2171    1.0089   25.5264 H   0  0  0  0  0  0  0  0  0  0  0  0
   14.1022    0.1753   23.9153 H   0  0  0  0  0  0  0  0  0  0  0  0
   13.6668   -1.4756   22.5530 H   0  0  0  0  0  0  0  0  0  0  0  0
   11.7677   -1.5440   21.7297 H   0  0  0  0  0  0  0  0  0  0  0  0
   11.9956   -2.6875   23.0962 H   0  0  0  0  0  0  0  0  0  0  0  0
    8.8940   -1.1792   22.7402 H   0  0  0  0  0  0  0  0  0  0  0  0
   10.4270   -1.0334   21.8155 H   0  0  0  0  0  0  0  0  0  0  0  0
    7.7229   -1.3245   21.7595 H   0  0  0  0  0  0  0  0  0  0  0  0
    8.5142   -0.1673   18.8569 H   0  0  0  0  0  0  0  0  0  0  0  0
    5.2975    1.2669   17.5520 H   0  0  0  0  0  0  0  0  0  0  0  0
    4.4774    1.4225   19.5384 H   0  0  0  0  0  0  0  0  0  0  0  0
    4.9943   -0.3153   21.8514 H   0  0  0  0  0  0  0  0  0  0  0  0
    6.3830    0.7080   22.3521 H   0  0  0  0  0  0  0  0  0  0  0  0
    4.8878    1.4725   21.7145 H   0  0  0  0  0  0  0  0  0  0  0  0
 20 21  2  0  0  0  0
 19 20  1  0  0  0  0
 21 22  1  0  0  0  0
 18 19  2  0  0  0  0
 22 23  2  0  0  0  0
 18 23  1  0  0  0  0
 17 18  1  0  0  0  0
 23 24  1  0  0  0  0
 15 16  2  0  0  0  0
 15 17  1  0  0  0  0
 14 15  1  0  0  0  0
  8 14  1  0  0  0  0
 12 13  1  0  0  0  0
  8 13  1  0  0  0  0
 11 12  2  0  0  0  0
  7  8  1  0  0  0  0
  8  9  1  0  0  0  0
 10 11  1  0  0  0  0
  6  7  3  0  0  0  0
  5  6  1  0  0  0  0
  9 10  2  0  0  0  0
  2  5  1  0  0  0  0
  2  3  2  0  0  0  0
  1  2  1  0  0  0  0
  2  4  2  0  0  0  0
  1 25  1  0  0  0  0
  1 26  1  0  0  0  0
  1 27  1  0  0  0  0
  5 28  1  0  0  0  0
  9 29  1  0  0  0  0
 10 30  1  0  0  0  0
 11 31  1  0  0  0  0
 12 32  1  0  0  0  0
 13 33  1  0  0  0  0
 13 34  1  0  0  0  0
 14 35  1  0  0  0  0
 14 36  1  0  0  0  0
 17 37  1  0  0  0  0
 19 38  1  0  0  0  0
 21 39  1  0  0  0  0
 22 40  1  0  0  0  0
 24 41  1  0  0  0  0
 24 42  1  0  0  0  0
 24 43  1  0  0  0  0
M  END
> <Chemgauss4>
-13.191219

$$$$
