stable:False satoms:9 tatoms:24 sratio:0.375
  -OEChem-08062413473D

 43 44  0     1  0  0  0  0  0999 V2000
   -6.4134   -5.1300  -26.1902 C   0  0  0  0  0  0  0  0  0  0  0  0
   -8.0009   -4.5007  -26.0261 S   0  0  0  0  0  0  0  0  0  0  0  0
   -8.9067   -5.6170  -25.9612 O   0  0  0  0  0  0  0  0  0  0  0  0
   -8.3058   -3.6561  -27.1331 O   0  0  0  0  0  0  0  0  0  0  0  0
   -7.9634   -3.7414  -24.6155 N   0  0  0  0  0  0  0  0  0  0  0  0
   -8.8166   -3.0359  -24.1556 C   0  0  0  0  0  0  0  0  0  0  0  0
   -9.3340   -2.0737  -23.6293 C   0  0  0  0  0  0  0  0  0  0  0  0
  -10.2206   -1.1761  -23.4294 C   0  0  1  0  0  0  0  0  0  0  0  0
  -10.8346   -0.1392  -24.5980 C   0  0  0  0  0  0  0  0  0  0  0  0
  -11.8341    0.2356  -24.7166 C   0  0  0  0  0  0  0  0  0  0  0  0
  -12.9350   -0.2681  -23.8198 C   0  0  0  0  0  0  0  0  0  0  0  0
  -12.6452   -1.1438  -23.0522 C   0  0  0  0  0  0  0  0  0  0  0  0
  -11.6970   -1.6672  -22.7723 C   0  0  0  0  0  0  0  0  0  0  0  0
   -9.6166   -0.5929  -22.5200 C   0  0  0  0  0  0  0  0  0  0  0  0
   -8.9897    0.0802  -21.5867 C   0  0  0  0  0  0  0  0  0  0  0  0
   -9.4747    1.0505  -21.2265 O   0  0  0  0  0  0  0  0  0  0  0  0
   -7.8648   -0.5413  -21.2286 N   0  0  0  0  0  0  0  0  0  0  0  0
   -7.2135   -0.0736  -20.2825 C   0  0  0  0  0  0  0  0  0  0  0  0
   -7.3214    0.0756  -18.9999 C   0  0  0  0  0  0  0  0  0  0  0  0
   -6.9021    0.3576  -17.8956 N   0  0  0  0  0  0  0  0  0  0  0  0
   -5.7588    0.8395  -18.2886 C   0  0  0  0  0  0  0  0  0  0  0  0
   -5.2817    0.9174  -19.4373 C   0  0  0  0  0  0  0  0  0  0  0  0
   -5.7729    0.5167  -20.6245 C   0  0  0  0  0  0  0  0  0  0  0  0
   -5.3899    0.5669  -21.5828 C   0  0  0  0  0  0  0  0  0  0  0  0
   -6.3320   -5.6778  -27.1406 H   0  0  0  0  0  0  0  0  0  0  0  0
   -5.6884   -4.3027  -26.1807 H   0  0  0  0  0  0  0  0  0  0  0  0
   -6.2016   -5.8128  -25.3542 H   0  0  0  0  0  0  0  0  0  0  0  0
   -7.1458   -3.1669  -24.6532 H   0  0  0  0  0  0  0  0  0  0  0  0
  -10.1228    0.1993  -25.3364 H   0  0  0  0  0  0  0  0  0  0  0  0
  -12.0494    0.9719  -25.4768 H   0  0  0  0  0  0  0  0  0  0  0  0
  -13.9346    0.1384  -23.8656 H   0  0  0  0  0  0  0  0  0  0  0  0
  -13.4991   -1.5126  -22.5034 H   0  0  0  0  0  0  0  0  0  0  0  0
  -11.6001   -1.5810  -21.6800 H   0  0  0  0  0  0  0  0  0  0  0  0
  -11.8280   -2.7244  -23.0465 H   0  0  0  0  0  0  0  0  0  0  0  0
   -8.7263   -1.2161  -22.6905 H   0  0  0  0  0  0  0  0  0  0  0  0
  -10.2594   -1.0703  -21.7658 H   0  0  0  0  0  0  0  0  0  0  0  0
   -7.5553   -1.3614  -21.7098 H   0  0  0  0  0  0  0  0  0  0  0  0
   -8.3466   -0.2042  -18.8073 H   0  0  0  0  0  0  0  0  0  0  0  0
   -5.1298    1.2300  -17.5023 H   0  0  0  0  0  0  0  0  0  0  0  0
   -4.3098    1.3855  -19.4887 H   0  0  0  0  0  0  0  0  0  0  0  0
   -4.8266   -0.3522  -21.8017 H   0  0  0  0  0  0  0  0  0  0  0  0
   -6.2153    0.6711  -22.3024 H   0  0  0  0  0  0  0  0  0  0  0  0
   -4.7201    1.4356  -21.6648 H   0  0  0  0  0  0  0  0  0  0  0  0
 20 21  2  0  0  0  0
 19 20  1  0  0  0  0
 21 22  1  0  0  0  0
 18 19  2  0  0  0  0
 22 23  2  0  0  0  0
 18 23  1  0  0  0  0
 17 18  1  0  0  0  0
 23 24  1  0  0  0  0
 15 16  2  0  0  0  0
 15 17  1  0  0  0  0
 14 15  1  0  0  0  0
  8 14  1  0  0  0  0
 12 13  1  0  0  0  0
  8 13  1  0  0  0  0
 11 12  2  0  0  0  0
  7  8  1  0  0  0  0
  8  9  1  0  0  0  0
 10 11  1  0  0  0  0
  6  7  3  0  0  0  0
  5  6  1  0  0  0  0
  9 10  2  0  0  0  0
  2  5  1  0  0  0  0
  2  3  2  0  0  0  0
  1  2  1  0  0  0  0
  2  4  2  0  0  0  0
  1 25  1  0  0  0  0
  1 26  1  0  0  0  0
  1 27  1  0  0  0  0
  5 28  1  0  0  0  0
  9 29  1  0  0  0  0
 10 30  1  0  0  0  0
 11 31  1  0  0  0  0
 12 32  1  0  0  0  0
 13 33  1  0  0  0  0
 13 34  1  0  0  0  0
 14 35  1  0  0  0  0
 14 36  1  0  0  0  0
 17 37  1  0  0  0  0
 19 38  1  0  0  0  0
 21 39  1  0  0  0  0
 22 40  1  0  0  0  0
 24 41  1  0  0  0  0
 24 42  1  0  0  0  0
 24 43  1  0  0  0  0
M  END
> <Chemgauss4>
-13.165059

$$$$
