stable:False satoms:21 tatoms:24 sratio:0.875
  -OEChem-08052420173D

 25 25  0     1  0  0  0  0  0999 V2000
   -9.1411   -2.1647  -24.9871 C   0  0  0  0  0  0  0  0  0  0  0  0
   -9.0359   -1.6337  -25.9479 H   0  0  0  0  0  0  0  0  0  0  0  0
   -9.2295   -1.2753  -23.9061 N   0  3  0  0  0  0  0  0  0  0  0  0
  -10.0232   -2.7928  -25.1182 H   0  0  0  0  0  0  0  0  0  0  0  0
  -10.1793   -0.9623  -23.8957 H   0  0  0  0  0  0  0  0  0  0  0  0
   -7.9339   -3.8521  -25.4321 H   0  0  0  0  0  0  0  0  0  0  0  0
   -9.2610   -0.9541  -21.4324 N   0  0  0  0  0  0  0  0  0  0  0  0
   -7.5744   -4.9937  -23.0978 C   0  0  0  0  0  0  0  0  0  0  0  0
   -6.7823   -5.8350  -24.8216 H   0  0  0  0  0  0  0  0  0  0  0  0
   -8.1345   -5.8119  -22.3893 O   0  0  0  0  0  0  0  0  0  0  0  0
   -8.2455   -2.7970  -22.2736 C   0  0  0  0  0  0  0  0  0  0  0  0
   -6.9735   -2.5073  -24.8174 H   0  0  0  0  0  0  0  0  0  0  0  0
   -5.7919   -6.1138  -23.4135 H   0  0  0  0  0  0  0  0  0  0  0  0
   -5.7839   -4.5106  -24.1423 H   0  0  0  0  0  0  0  0  0  0  0  0
   -6.4071   -5.3755  -23.9133 C   0  0  0  0  0  0  0  0  0  0  0  0
   -7.9028   -3.0746  -24.6846 C   0  0  0  0  0  0  0  0  0  0  0  0
   -8.1702    0.6928  -22.2624 O   0  5  0  0  0  0  0  0  0  0  0  0
   -8.9139   -1.6067  -22.5184 C   0  0  3  0  0  0  0  0  0  0  0  0
   -7.9775   -2.9896  -21.2420 H   0  0  0  0  0  0  0  0  0  0  0  0
   -9.5554   -1.3636  -20.5450 H   0  0  0  0  0  0  0  0  0  0  0  0
   -9.0099    0.9142  -20.1556 O   0  0  0  0  0  0  0  0  0  0  0  0
   -8.8228    0.3373  -21.1712 C   0  0  0  0  0  0  0  0  0  0  0  0
   -7.9590   -3.6029  -23.2989 C   0  0  0  0  0  0  0  0  0  0  0  0
   -7.9635   -1.0560  -22.5778 H   0  0  0  0  0  0  0  0  0  0  0  0
   -8.6292   -0.5107  -24.1404 H   0  0  0  0  0  0  0  0  0  0  0  0
 21 22  2  0  0  0  0
 17 22  1  0  0  0  0
  7 22  1  0  0  0  0
  7 20  1  0  0  0  0
  7 18  1  0  0  0  0
 11 19  1  0  0  0  0
 11 18  1  0  0  0  0
  3 18  1  0  0  0  0
  3  5  1  0  0  0  0
 11 23  2  0  0  0  0
 12 16  1  0  0  0  0
  1  3  1  0  0  0  0
 14 15  1  0  0  0  0
 16 23  1  0  0  0  0
  8 23  1  0  0  0  0
 13 15  1  0  0  0  0
  1 16  1  0  0  0  0
  6 16  1  0  0  0  0
  8 15  1  0  0  0  0
  8 10  2  0  0  0  0
  9 15  1  0  0  0  0
  1  2  1  0  0  0  0
  1  4  1  0  0  0  0
 18 24  1  0  0  0  0
  3 25  1  0  0  0  0
M  CHG  2   3   1  17  -1
M  END
> <Chemgauss4>
-6.283049

$$$$
