REMARK  8 active torsions:
REMARK  status: ('A' for Active; 'I' for Inactive)
REMARK    1  A    between atoms: N_2  and  C_4 
REMARK    2  A    between atoms: C_4  and  C_5 
REMARK    3  A    between atoms: C_5  and  C_6 
REMARK    4  A    between atoms: C_6  and  C_7 
REMARK    5  A    between atoms: C_7  and  C_11 
REMARK    6  A    between atoms: C_7  and  N_9 
REMARK    7  A    between atoms: C_11  and  C_12 
REMARK       I    between atoms: C_12  and  N_14 
REMARK    8  A    between atoms: N_14  and  C_16 
ROOT
HETATM    1  C   UNL     1      10.004  -0.285  22.185  1.00  0.00    -0.026 C 
ENDROOT
BRANCH   1   2
HETATM    2  C   UNL     1      10.965  -0.588  23.039  1.00  0.00     0.078 C 
BRANCH   2   3
HETATM    3  C   UNL     1      10.637  -1.830  23.452  1.00  0.00     0.047 C 
BRANCH   3   4
HETATM    4  C   UNL     1       9.517  -2.286  23.774  1.00  0.00     0.077 C 
BRANCH   4   5
HETATM    5  C   UNL     1       8.817  -2.998  24.377  1.00  0.00    -0.047 C 
BRANCH   5   6
HETATM    6  N   UNL     1       8.109  -3.717  24.931  1.00  0.00    -0.361 N 
HETATM    7  C   UNL     1       8.118  -4.356  26.188  1.00  0.00     0.156 C 
ATOM      8  HN  UNL     1       7.279  -3.946  24.383  1.00  0.00     0.168 HD
ENDBRANCH   5   6
ENDBRANCH   4   5
ENDBRANCH   3   4
ENDBRANCH   2   3
BRANCH   2   9
HETATM    9  N   UNL     1      12.293  -0.096  23.336  1.00  0.00    -0.393 N 
HETATM   10  H   UNL     1      12.400   0.551  24.057  1.00  0.00     0.157 HD
HETATM   11  H   UNL     1      12.957  -0.782  23.094  1.00  0.00     0.157 HD
ENDBRANCH   2   9
ENDBRANCH   1   2
BRANCH   1  12
HETATM   12  C   UNL     1       9.170   0.141  21.196  1.00  0.00     0.295 C 
HETATM   13  O   UNL     1       9.536   0.973  20.441  1.00  0.00    -0.258 OA
HETATM   14  N   UNL     1       7.845  -0.396  21.015  1.00  0.00    -0.314 N 
ATOM     15  HN  UNL     1       7.560  -1.237  21.517  1.00  0.00     0.170 HD
BRANCH  14  16
HETATM   16  C   UNL     1       7.005   0.202  20.201  1.00  0.00     0.069 A 
HETATM   17  C   UNL     1       6.880   0.370  18.743  1.00  0.00     0.138 A 
HETATM   18  N   UNL     1       5.786   1.066  18.468  1.00  0.00    -0.310 N 
HETATM   19  N   UNL     1       5.113   1.230  19.556  1.00  0.00    -0.310 N 
ATOM     20  HN  UNL     1       5.520   1.415  17.547  1.00  0.00     0.186 HD
HETATM   21  C   UNL     1       5.771   0.785  20.612  1.00  0.00     0.138 A 
ATOM     22  HN  UNL     1       4.185   1.652  19.596  1.00  0.00     0.186 HD
ENDBRANCH  14  16
ENDBRANCH   1  12
TORSDOF 8
