stable:False satoms:14 tatoms:24 sratio:0.5833333333333334
  -OEChem-07092417383D

 24 23  0     0  0  0  0  0  0999 V2000
    7.0600   -4.5330   26.4281 H   0  0  0  0  0  0  0  0  0  0  0  0
    8.0540   -4.3140   26.0202 C   0  0  0  0  0  0  0  0  0  0  0  0
    8.6674   -5.2435   26.0022 H   0  0  0  0  0  0  0  0  0  0  0  0
    8.6527   -3.4769   26.9217 F   0  0  0  0  0  0  0  0  0  0  0  0
    7.9475   -3.7095   24.7464 N   0  0  0  0  0  0  0  0  0  0  0  0
    8.8805   -2.9463   24.3487 N   0  3  0  0  0  0  0  0  0  0  0  0
    9.7091   -2.3638   23.7959 C   0  0  0  0  0  0  0  0  0  0  0  0
   11.1844   -0.8101   23.3541 C   0  0  0  0  0  0  0  0  0  0  0  0
   10.3379    0.1508   23.2538 N   0  0  0  0  0  0  0  0  0  0  0  0
   12.8077    0.3870   24.1180 H   0  0  0  0  0  0  0  0  0  0  0  0
   12.5839   -0.4934   23.5712 C   0  5  0  0  0  0  0  0  0  0  0  0
   13.3297   -1.1466   23.1926 H   0  0  0  0  0  0  0  0  0  0  0  0
   10.8999   -2.0983   23.3556 N   0  0  0  0  0  0  0  0  0  0  0  0
    9.4625   -0.2507   22.3544 C   0  0  0  0  0  0  0  0  0  0  0  0
    8.8154    0.1091   21.3829 N   0  0  0  0  0  0  0  0  0  0  0  0
    9.0091    0.9092   20.7520 H   0  0  0  0  0  0  0  0  0  0  0  0
    8.2056   -0.8624   21.6508 N   0  0  0  0  0  0  0  0  0  0  0  0
    7.3182    0.0475   19.1413 C   0  0  0  0  0  0  0  0  0  0  0  0
    7.9546   -0.7818   19.1966 H   0  0  0  0  0  0  0  0  0  0  0  0
    7.2504    0.5853   18.1943 H   0  0  0  0  0  0  0  0  0  0  0  0
    5.0643    1.1069   18.9171 H   0  0  0  0  0  0  0  0  0  0  0  0
    5.2759    0.9145   19.9157 C   0  5  0  0  0  0  0  0  0  0  0  0
    6.4258    0.4343   19.8564 C   0  0  0  0  0  0  0  0  0  0  0  0
    4.6875    1.0958   20.8268 H   0  0  0  0  0  0  0  0  0  0  0  0
 18 20  1  0  0  0  0
 21 22  1  0  0  0  0
 18 19  1  0  0  0  0
 18 23  2  0  0  0  0
 22 23  1  0  0  0  0
 22 24  1  0  0  0  0
 15 16  1  0  0  0  0
 15 17  1  0  0  0  0
 14 15  1  0  0  0  0
 14 17  1  0  0  0  0
  9 14  1  0  0  0  0
 11 12  1  0  0  0  0
  8  9  2  3  0  0  0
  8 13  1  0  0  0  0
  8 11  1  0  0  0  0
  7 13  1  0  0  0  0
 10 11  1  0  0  0  0
  6  7  2  0  0  0  0
  5  6  2  0  0  0  0
  2  5  1  0  0  0  0
  2  3  1  0  0  0  0
  1  2  1  0  0  0  0
  2  4  1  0  0  0  0
M  CHG  3   6   1  11  -1  22  -1
M  END
> <Shapegauss>
-165.083557

$$$$
