stable:False satoms:22 tatoms:24 sratio:0.9166666666666666
  -OEChem-07092417303D

 24 22  0     1  0  0  0  0  0999 V2000
    8.0030   -3.4641   24.8369 H   0  0  0  0  0  0  0  0  0  0  0  0
    7.6988   -2.5565   25.3568 C   0  0  0  0  0  0  0  0  0  0  0  0
    8.0695   -2.5755   26.3831 H   0  0  0  0  0  0  0  0  0  0  0  0
    8.9114   -1.1365   20.3084 N   0  5  0  0  0  0  0  0  0  0  0  0
    6.6178   -2.5168   25.3726 H   0  0  0  0  0  0  0  0  0  0  0  0
   11.5431   -0.0420   19.7551 C   0  0  0  0  0  0  0  0  0  0  0  0
    6.6877   -1.2064   19.3946 H   0  0  0  0  0  0  0  0  0  0  0  0
   11.6611    0.0291   21.7722 H   0  0  0  0  0  0  0  0  0  0  0  0
    8.3068   -1.4248   24.6200 C   0  0  3  0  0  0  0  0  0  0  0  0
    8.3260    0.0275   26.5435 F   0  0  0  0  0  0  0  0  0  0  0  0
    8.6741    0.9965   24.6830 F   0  0  0  0  0  0  0  0  0  0  0  0
   10.1598   -0.2937   25.4780 F   0  0  0  0  0  0  0  0  0  0  0  0
   10.9914   -0.2394   20.9786 C   0  5  3  0  0  0  0  0  0  0  0  0
    6.9239   -1.3617   21.1424 H   0  0  0  0  0  0  0  0  0  0  0  0
    8.8334   -0.2026   25.3230 C   0  0  0  0  0  0  0  0  0  0  0  0
    5.5674   -2.1764   20.3404 H   0  0  0  0  0  0  0  0  0  0  0  0
    9.0734   -1.3100   19.3595 H   0  0  0  0  0  0  0  0  0  0  0  0
   12.1295    0.2292   18.7635 N   0  0  0  0  0  0  0  0  0  0  0  0
    9.7220   -0.7924   21.2440 C   0  0  3  0  0  0  0  0  0  0  0  0
    6.5883   -1.8695   20.2506 C   0  0  0  0  0  0  0  0  0  0  0  0
    8.5312   -1.6034   23.3463 N   0  3  0  0  0  0  0  0  0  0  0  0
    9.9734   -0.2004   23.2613 H   0  0  0  0  0  0  0  0  0  0  0  0
    7.2209   -2.7374   20.1170 H   0  0  0  0  0  0  0  0  0  0  0  0
    9.3702   -0.8629   22.6660 C   0  3  0  0  0  0  0  0  0  0  0  0
  6 18  3  0  0  0  0
  4 17  1  0  0  0  0
  7 20  1  0  0  0  0
  6 13  1  0  0  0  0
 20 23  1  0  0  0  0
 16 20  1  0  0  0  0
 14 20  1  0  0  0  0
  4 19  1  0  0  0  0
 13 19  1  0  0  0  0
  8 13  1  0  0  0  0
 19 24  1  0  0  0  0
 22 24  1  0  0  0  0
 21 24  1  0  0  0  0
  9 21  1  0  0  0  0
  9 15  1  0  0  0  0
  2  9  1  0  0  0  0
 11 15  1  0  0  0  0
  1  2  1  0  0  0  0
 12 15  1  0  0  0  0
 10 15  1  0  0  0  0
  2  5  1  0  0  0  0
  2  3  1  0  0  0  0
M  CHG  4   4  -1  13  -1  21   1  24   1
M  END
> <Shapegauss>
-84.045334

$$$$
