stable:False satoms:10 tatoms:24 sratio:0.4166666666666667
  -OEChem-07092417483D

 24 25  0     1  0  0  0  0  0999 V2000
    6.6461   -4.8835   26.4382 C   0  0  0  0  0  0  0  0  0  0  0  0
    8.2329   -4.3311   26.1024 S   0  0  0  0  0  0  0  0  0  0  0  0
    9.0909   -5.4663   26.0279 O   0  0  0  0  0  0  0  0  0  0  0  0
    8.5746   -3.4486   27.1607 O   0  0  0  0  0  0  0  0  0  0  0  0
    8.1306   -3.5435   24.6865 N   0  0  0  0  0  0  0  0  0  0  0  0
    8.9700   -2.9396   24.1522 C   0  0  0  0  0  0  0  0  0  0  0  0
    9.4256   -1.9545   23.4934 C   0  0  0  0  0  0  0  0  0  0  0  0
   10.3246   -1.0546   23.3396 C   0  0  2  0  0  0  0  0  0  0  0  0
   10.9990   -0.0275   24.2753 C   0  0  0  0  0  0  0  0  0  0  0  0
   12.0771    0.3211   24.2725 C   0  0  0  0  0  0  0  0  0  0  0  0
   13.1586   -0.1946   23.4271 C   0  0  0  0  0  0  0  0  0  0  0  0
   12.6925   -1.2679   22.6406 C   0  0  0  0  0  0  0  0  0  0  0  0
   11.8011   -1.7410   22.4890 C   0  0  0  0  0  0  0  0  0  0  0  0
    9.7177   -0.6103   22.3573 C   0  0  2  0  0  0  0  0  0  0  0  0
    9.0490    0.0233   21.3816 C   0  0  0  0  0  0  0  0  0  0  0  0
    9.5419    0.9769   20.9454 O   0  0  0  0  0  0  0  0  0  0  0  0
    7.9203   -0.5616   21.0830 N   0  0  0  0  0  0  0  0  0  0  0  0
    7.1984   -0.0847   20.1873 C   0  0  0  0  0  0  0  0  0  0  0  0
    7.2617    0.0069   18.8523 C   0  0  0  0  0  0  0  0  0  0  0  0
    6.7878    0.3697   17.7974 N   0  0  0  0  0  0  0  0  0  0  0  0
    5.6355    0.8513   18.2315 C   0  0  0  0  0  0  0  0  0  0  0  0
    5.2226    0.9701   19.4199 C   0  0  0  0  0  0  0  0  0  0  0  0
    5.8129    0.5789   20.5439 C   0  0  0  0  0  0  0  0  0  0  0  0
    5.3128    0.7210   21.9917 C   0  0  0  0  0  0  0  0  0  0  0  0
 20 21  2  0  0  0  0
 19 20  1  0  0  0  0
 21 22  1  0  0  0  0
 18 19  2  0  0  0  0
 22 23  2  0  0  0  0
 18 23  1  0  0  0  0
 17 18  1  0  0  0  0
 23 24  1  0  0  0  0
 15 16  2  0  0  0  0
 15 17  1  0  0  0  0
 14 15  1  0  0  0  0
  8 14  1  0  0  0  0
  7 14  1  0  0  0  0
 12 13  2  0  0  0  0
 11 12  1  0  0  0  0
  7  8  1  0  0  0  0
  8  9  1  0  0  0  0
 10 11  1  0  0  0  0
  6  7  2  3  0  0  0
  5  6  1  0  0  0  0
  9 10  2  0  0  0  0
  2  5  1  0  0  0  0
  2  3  2  0  0  0  0
  1  2  1  0  0  0  0
  2  4  2  0  0  0  0
M  END
> <Shapegauss>
-285.405273

$$$$
