MODEL 1
REMARK VINA RESULT:    -7.105      0.000      0.000
REMARK INTER + INTRA:         -11.028
REMARK INTER:                 -10.012
REMARK INTRA:                  -1.016
REMARK UNBOUND:                -1.016
REMARK  7 active torsions:
REMARK  status: ('A' for Active; 'I' for Inactive)
REMARK    1  A    between atoms: S_2  and  N_5 
REMARK    2  A    between atoms: N_5  and  C_7 
REMARK    3  A    between atoms: C_9  and  C_10 
REMARK    4  A    between atoms: C_10  and  C_11 
REMARK    5  A    between atoms: C_11  and  C_12 
REMARK    6  A    between atoms: C_15  and  C_16 
REMARK       I    between atoms: C_16  and  N_18 
REMARK    7  A    between atoms: N_18  and  C_20 
ROOT
HETATM    1  C   UNL     1       6.752  -0.882  21.201  1.00  0.00     0.108 C 
HETATM    2  C   UNL     1       7.456  -1.448  22.094  1.00  0.00    -0.017 A 
HETATM    3  C   UNL     1       8.567  -1.539  22.725  1.00  0.00     0.082 A 
HETATM    4  C   UNL     1       8.123  -2.493  23.377  1.00  0.00     0.031 A 
ENDROOT
BRANCH   4   5
HETATM    5  C   UNL     1       7.774  -3.621  24.014  1.00  0.00     0.253 C 
HETATM    6  O   UNL     1       7.956  -4.617  23.449  1.00  0.00    -0.268 OA
HETATM    7  N   UNL     1       7.273  -3.396  25.199  1.00  0.00    -0.321 N 
ATOM      8  HN  UNL     1       7.177  -2.441  25.543  1.00  0.00     0.169 HD
BRANCH   7   9
HETATM    9  C   UNL     1       6.913  -4.356  25.907  1.00  0.00     0.056 A 
HETATM   10  C   UNL     1       7.488  -5.130  26.836  1.00  0.00     0.117 A 
HETATM   11  N   UNL     1       7.430  -6.049  27.625  1.00  0.00    -0.373 N 
HETATM   12  C   UNL     1       6.151  -6.360  27.501  1.00  0.00     0.088 A 
ATOM     13  HN  UNL     1       8.156  -6.461  28.213  1.00  0.00     0.164 HD
HETATM   14  C   UNL     1       5.291  -5.882  26.709  1.00  0.00     0.026 A 
HETATM   15  C   UNL     1       5.430  -4.890  25.837  1.00  0.00    -0.033 A 
HETATM   16  C   UNL     1       4.385  -4.304  24.872  1.00  0.00     0.050 C 
ENDBRANCH   7   9
ENDBRANCH   4   5
BRANCH   3  17
HETATM   17  C   UNL     1      10.050  -1.605  22.301  1.00  0.00    -0.012 C 
BRANCH  17  18
HETATM   18  C   UNL     1      10.967  -1.350  22.916  1.00  0.00    -0.003 C 
BRANCH  18  19
HETATM   19  C   UNL     1      11.021  -0.441  24.066  1.00  0.00    -0.001 C 
HETATM   20  C   UNL     1      12.359  -0.215  24.446  1.00  0.00    -0.010 C 
HETATM   21  C   UNL     1      13.281  -0.491  24.106  1.00  0.00     0.011 C 
ENDBRANCH  18  19
ENDBRANCH  17  18
ENDBRANCH   3  17
BRANCH   1  22
HETATM   22  N   UNL     1       6.029  -0.871  20.290  1.00  0.00    -0.295 N 
ATOM     23  HN  UNL     1       5.224  -1.494  20.343  1.00  0.00     0.177 HD
BRANCH  22  24
HETATM   24  S   UNL     1       6.158   0.025  18.942  1.00  0.00     0.226 S 
HETATM   25  C   UNL     1       5.054   1.320  19.141  1.00  0.00     0.186 C 
HETATM   26  O   UNL     1       7.463   0.575  18.781  1.00  0.00    -0.206 OA
HETATM   27  O   UNL     1       5.718  -0.695  17.799  1.00  0.00    -0.206 OA
ENDBRANCH  22  24
ENDBRANCH   1  22
TORSDOF 7
ENDMDL
MODEL 2
REMARK VINA RESULT:    -6.914     14.256     17.556
REMARK INTER + INTRA:         -10.759
REMARK INTER:                  -9.356
REMARK INTRA:                  -1.404
REMARK UNBOUND:                -1.016
REMARK  7 active torsions:
REMARK  status: ('A' for Active; 'I' for Inactive)
REMARK    1  A    between atoms: S_2  and  N_5 
REMARK    2  A    between atoms: N_5  and  C_7 
REMARK    3  A    between atoms: C_9  and  C_10 
REMARK    4  A    between atoms: C_10  and  C_11 
REMARK    5  A    between atoms: C_11  and  C_12 
REMARK    6  A    between atoms: C_15  and  C_16 
REMARK       I    between atoms: C_16  and  N_18 
REMARK    7  A    between atoms: N_18  and  C_20 
ROOT
HETATM    1  C   UNL     1      24.064  -4.231  24.413  1.00  0.00     0.108 C 
HETATM    2  C   UNL     1      24.074  -3.171  23.713  1.00  0.00    -0.017 A 
HETATM    3  C   UNL     1      24.309  -1.915  23.622  1.00  0.00     0.082 A 
HETATM    4  C   UNL     1      23.913  -1.922  22.449  1.00  0.00     0.031 A 
ENDROOT
BRANCH   4   5
HETATM    5  C   UNL     1      23.362  -1.814  21.231  1.00  0.00     0.253 C 
HETATM    6  O   UNL     1      22.204  -1.815  21.180  1.00  0.00    -0.268 OA
HETATM    7  N   UNL     1      24.254  -1.724  20.280  1.00  0.00    -0.321 N 
ATOM      8  HN  UNL     1      25.248  -1.747  20.505  1.00  0.00     0.169 HD
BRANCH   7   9
HETATM    9  C   UNL     1      23.882  -1.610  19.097  1.00  0.00     0.056 A 
HETATM   10  C   UNL     1      23.377  -0.626  18.341  1.00  0.00     0.117 A 
HETATM   11  N   UNL     1      22.950  -0.226  17.279  1.00  0.00    -0.373 N 
HETATM   12  C   UNL     1      23.156  -1.306  16.544  1.00  0.00     0.088 A 
ATOM     13  HN  UNL     1      22.551   0.678  17.027  1.00  0.00     0.164 HD
HETATM   14  C   UNL     1      23.584  -2.440  16.900  1.00  0.00     0.026 A 
HETATM   15  C   UNL     1      24.006  -2.825  18.099  1.00  0.00    -0.033 A 
HETATM   16  C   UNL     1      24.529  -4.204  18.536  1.00  0.00     0.050 C 
ENDBRANCH   7   9
ENDBRANCH   4   5
BRANCH   3  17
HETATM   17  C   UNL     1      23.950  -0.682  24.479  1.00  0.00    -0.012 C 
BRANCH  17  18
HETATM   18  C   UNL     1      22.923  -0.330  24.805  1.00  0.00    -0.003 C 
BRANCH  18  19
HETATM   19  C   UNL     1      22.155  -0.826  25.953  1.00  0.00    -0.001 C 
HETATM   20  C   UNL     1      20.912  -1.334  25.523  1.00  0.00    -0.010 C 
HETATM   21  C   UNL     1      20.439  -1.473  24.629  1.00  0.00     0.011 C 
ENDBRANCH  18  19
ENDBRANCH  17  18
ENDBRANCH   3  17
BRANCH   1  22
HETATM   22  N   UNL     1      23.587  -5.210  24.821  1.00  0.00    -0.295 N 
ATOM     23  HN  UNL     1      22.591  -5.172  25.036  1.00  0.00     0.177 HD
BRANCH  22  24
HETATM   24  S   UNL     1      24.328  -6.630  25.089  1.00  0.00     0.226 S 
HETATM   25  C   UNL     1      26.007  -6.292  25.030  1.00  0.00     0.186 C 
HETATM   26  O   UNL     1      24.028  -7.162  26.376  1.00  0.00    -0.206 OA
HETATM   27  O   UNL     1      24.076  -7.551  24.038  1.00  0.00    -0.206 OA
ENDBRANCH  22  24
ENDBRANCH   1  22
TORSDOF 7
ENDMDL
MODEL 3
REMARK VINA RESULT:    -6.773      2.989      6.697
REMARK INTER + INTRA:         -10.561
REMARK INTER:                  -9.526
REMARK INTRA:                  -1.035
REMARK UNBOUND:                -1.016
REMARK  7 active torsions:
REMARK  status: ('A' for Active; 'I' for Inactive)
REMARK    1  A    between atoms: S_2  and  N_5 
REMARK    2  A    between atoms: N_5  and  C_7 
REMARK    3  A    between atoms: C_9  and  C_10 
REMARK    4  A    between atoms: C_10  and  C_11 
REMARK    5  A    between atoms: C_11  and  C_12 
REMARK    6  A    between atoms: C_15  and  C_16 
REMARK       I    between atoms: C_16  and  N_18 
REMARK    7  A    between atoms: N_18  and  C_20 
ROOT
HETATM    1  C   UNL     1       8.789  -3.109  24.125  1.00  0.00     0.108 C 
HETATM    2  C   UNL     1       9.346  -2.299  23.320  1.00  0.00    -0.017 A 
HETATM    3  C   UNL     1      10.410  -1.724  22.899  1.00  0.00     0.082 A 
HETATM    4  C   UNL     1       9.742  -1.084  22.076  1.00  0.00     0.031 A 
ENDROOT
BRANCH   4   5
HETATM    5  C   UNL     1       9.079  -0.246  21.266  1.00  0.00     0.253 C 
HETATM    6  O   UNL     1       9.628   0.727  20.958  1.00  0.00    -0.268 OA
HETATM    7  N   UNL     1       7.888  -0.683  20.954  1.00  0.00    -0.321 N 
ATOM      8  HN  UNL     1       7.554  -1.572  21.326  1.00  0.00     0.169 HD
BRANCH   7   9
HETATM    9  C   UNL     1       7.162  -0.007  20.200  1.00  0.00     0.056 A 
HETATM   10  C   UNL     1       6.854  -0.026  18.896  1.00  0.00     0.117 A 
HETATM   11  N   UNL     1       6.257   0.436  17.948  1.00  0.00    -0.373 N 
HETATM   12  C   UNL     1       5.551   1.365  18.569  1.00  0.00     0.088 A 
ATOM     13  HN  UNL     1       6.290   0.182  16.960  1.00  0.00     0.164 HD
HETATM   14  C   UNL     1       5.586   1.709  19.785  1.00  0.00     0.026 A 
HETATM   15  C   UNL     1       6.295   1.178  20.774  1.00  0.00    -0.033 A 
HETATM   16  C   UNL     1       6.340   1.593  22.255  1.00  0.00     0.050 C 
ENDBRANCH   7   9
ENDBRANCH   4   5
BRANCH   3  17
HETATM   17  C   UNL     1      11.584  -0.987  23.579  1.00  0.00    -0.012 C 
BRANCH  17  18
HETATM   18  C   UNL     1      11.540  -0.168  24.360  1.00  0.00    -0.003 C 
BRANCH  18  19
HETATM   19  C   UNL     1      10.367   0.219  25.153  1.00  0.00    -0.001 C 
HETATM   20  C   UNL     1       9.918   1.497  24.766  1.00  0.00    -0.010 C 
HETATM   21  C   UNL     1      10.176   2.190  24.062  1.00  0.00     0.011 C 
ENDBRANCH  18  19
ENDBRANCH  17  18
ENDBRANCH   3  17
BRANCH   1  22
HETATM   22  N   UNL     1       7.969  -3.433  24.884  1.00  0.00    -0.295 N 
ATOM     23  HN  UNL     1       7.981  -2.964  25.790  1.00  0.00     0.177 HD
BRANCH  22  24
HETATM   24  S   UNL     1       6.808  -4.546  24.664  1.00  0.00     0.226 S 
HETATM   25  C   UNL     1       7.184  -5.318  23.181  1.00  0.00     0.186 C 
HETATM   26  O   UNL     1       6.806  -5.534  25.690  1.00  0.00    -0.206 OA
HETATM   27  O   UNL     1       5.538  -3.938  24.480  1.00  0.00    -0.206 OA
ENDBRANCH  22  24
ENDBRANCH   1  22
TORSDOF 7
ENDMDL
MODEL 4
REMARK VINA RESULT:    -6.684      4.393      8.065
REMARK INTER + INTRA:         -10.435
REMARK INTER:                  -9.454
REMARK INTRA:                  -0.981
REMARK UNBOUND:                -1.016
REMARK  7 active torsions:
REMARK  status: ('A' for Active; 'I' for Inactive)
REMARK    1  A    between atoms: S_2  and  N_5 
REMARK    2  A    between atoms: N_5  and  C_7 
REMARK    3  A    between atoms: C_9  and  C_10 
REMARK    4  A    between atoms: C_10  and  C_11 
REMARK    5  A    between atoms: C_11  and  C_12 
REMARK    6  A    between atoms: C_15  and  C_16 
REMARK       I    between atoms: C_16  and  N_18 
REMARK    7  A    between atoms: N_18  and  C_20 
ROOT
HETATM    1  C   UNL     1       6.682  -4.940  27.190  1.00  0.00     0.108 C 
HETATM    2  C   UNL     1       6.869  -3.936  26.435  1.00  0.00    -0.017 A 
HETATM    3  C   UNL     1       6.523  -3.253  25.408  1.00  0.00     0.082 A 
HETATM    4  C   UNL     1       7.461  -2.470  25.609  1.00  0.00     0.031 A 
ENDROOT
BRANCH   4   5
HETATM    5  C   UNL     1       8.534  -1.668  25.668  1.00  0.00     0.253 C 
HETATM    6  O   UNL     1       8.897  -1.357  26.724  1.00  0.00    -0.268 OA
HETATM    7  N   UNL     1       9.001  -1.364  24.487  1.00  0.00    -0.321 N 
ATOM      8  HN  UNL     1       8.549  -1.724  23.647  1.00  0.00     0.169 HD
BRANCH   7   9
HETATM    9  C   UNL     1      10.004  -0.630  24.391  1.00  0.00     0.056 A 
HETATM   10  C   UNL     1      11.323  -0.823  24.261  1.00  0.00     0.117 A 
HETATM   11  N   UNL     1      12.447  -0.381  24.157  1.00  0.00    -0.373 N 
HETATM   12  C   UNL     1      12.167   0.910  24.100  1.00  0.00     0.088 A 
ATOM     13  HN  UNL     1      13.345  -0.864  24.123  1.00  0.00     0.164 HD
HETATM   14  C   UNL     1      11.049   1.486  24.219  1.00  0.00     0.026 A 
HETATM   15  C   UNL     1       9.848   0.939  24.366  1.00  0.00    -0.033 A 
HETATM   16  C   UNL     1       8.485   1.637  24.511  1.00  0.00     0.050 C 
ENDBRANCH   7   9
ENDBRANCH   4   5
BRANCH   3  17
HETATM   17  C   UNL     1       6.196  -3.597  23.939  1.00  0.00    -0.012 C 
BRANCH  17  18
HETATM   18  C   UNL     1       6.890  -4.013  23.145  1.00  0.00    -0.003 C 
BRANCH  18  19
HETATM   19  C   UNL     1       7.417  -5.380  23.077  1.00  0.00    -0.001 C 
HETATM   20  C   UNL     1       6.889  -6.050  21.955  1.00  0.00    -0.010 C 
HETATM   21  C   UNL     1       6.275  -5.815  21.174  1.00  0.00     0.011 C 
ENDBRANCH  18  19
ENDBRANCH  17  18
ENDBRANCH   3  17
BRANCH   1  22
HETATM   22  N   UNL     1       7.026  -5.870  27.798  1.00  0.00    -0.295 N 
ATOM     23  HN  UNL     1       7.820  -6.389  27.421  1.00  0.00     0.177 HD
BRANCH  22  24
HETATM   24  S   UNL     1       6.386  -6.437  29.179  1.00  0.00     0.226 S 
HETATM   25  C   UNL     1       4.724  -6.692  28.846  1.00  0.00     0.186 C 
HETATM   26  O   UNL     1       6.957  -7.683  29.567  1.00  0.00    -0.206 OA
HETATM   27  O   UNL     1       6.435  -5.462  30.210  1.00  0.00    -0.206 OA
ENDBRANCH  22  24
ENDBRANCH   1  22
TORSDOF 7
ENDMDL
MODEL 5
REMARK VINA RESULT:    -6.458      2.958      7.166
REMARK INTER + INTRA:         -10.116
REMARK INTER:                  -9.359
REMARK INTRA:                  -0.757
REMARK UNBOUND:                -1.016
REMARK  7 active torsions:
REMARK  status: ('A' for Active; 'I' for Inactive)
REMARK    1  A    between atoms: S_2  and  N_5 
REMARK    2  A    between atoms: N_5  and  C_7 
REMARK    3  A    between atoms: C_9  and  C_10 
REMARK    4  A    between atoms: C_10  and  C_11 
REMARK    5  A    between atoms: C_11  and  C_12 
REMARK    6  A    between atoms: C_15  and  C_16 
REMARK       I    between atoms: C_16  and  N_18 
REMARK    7  A    between atoms: N_18  and  C_20 
ROOT
HETATM    1  C   UNL     1       6.871  -4.576  24.971  1.00  0.00     0.108 C 
HETATM    2  C   UNL     1       7.280  -3.821  24.035  1.00  0.00    -0.017 A 
HETATM    3  C   UNL     1       8.235  -3.168  23.487  1.00  0.00     0.082 A 
HETATM    4  C   UNL     1       7.458  -2.755  22.616  1.00  0.00     0.031 A 
ENDROOT
BRANCH   4   5
HETATM    5  C   UNL     1       6.656  -2.146  21.730  1.00  0.00     0.253 C 
HETATM    6  O   UNL     1       5.595  -2.593  21.593  1.00  0.00    -0.268 OA
HETATM    7  N   UNL     1       7.227  -1.122  21.153  1.00  0.00    -0.321 N 
ATOM      8  HN  UNL     1       8.185  -0.869  21.390  1.00  0.00     0.169 HD
BRANCH   7   9
HETATM    9  C   UNL     1       6.593  -0.458  20.312  1.00  0.00     0.056 A 
HETATM   10  C   UNL     1       6.097  -0.683  19.088  1.00  0.00     0.117 A 
HETATM   11  N   UNL     1       5.502  -0.298  18.105  1.00  0.00    -0.373 N 
HETATM   12  C   UNL     1       5.160   0.910  18.519  1.00  0.00     0.088 A 
ATOM     13  HN  UNL     1       5.319  -0.768  17.218  1.00  0.00     0.164 HD
HETATM   14  C   UNL     1       5.465   1.496  19.596  1.00  0.00     0.026 A 
HETATM   15  C   UNL     1       6.156   1.024  20.627  1.00  0.00    -0.033 A 
HETATM   16  C   UNL     1       6.528   1.734  21.940  1.00  0.00     0.050 C 
ENDBRANCH   7   9
ENDBRANCH   4   5
BRANCH   3  17
HETATM   17  C   UNL     1       9.306  -2.181  23.999  1.00  0.00    -0.012 C 
BRANCH  17  18
HETATM   18  C   UNL     1       9.255  -1.050  24.042  1.00  0.00    -0.003 C 
BRANCH  18  19
HETATM   19  C   UNL     1       9.489  -0.211  25.222  1.00  0.00    -0.001 C 
HETATM   20  C   UNL     1      10.704   0.491  25.088  1.00  0.00    -0.010 C 
HETATM   21  C   UNL     1      11.427   0.587  24.374  1.00  0.00     0.011 C 
ENDBRANCH  18  19
ENDBRANCH  17  18
ENDBRANCH   3  17
BRANCH   1  22
HETATM   22  N   UNL     1       6.129  -4.899  25.806  1.00  0.00    -0.295 N 
ATOM     23  HN  UNL     1       5.136  -4.806  25.590  1.00  0.00     0.177 HD
BRANCH  22  24
HETATM   24  S   UNL     1       6.494  -5.481  27.277  1.00  0.00     0.226 S 
HETATM   25  C   UNL     1       5.629  -4.504  28.388  1.00  0.00     0.186 C 
HETATM   26  O   UNL     1       6.066  -6.830  27.446  1.00  0.00    -0.206 OA
HETATM   27  O   UNL     1       7.869  -5.297  27.580  1.00  0.00    -0.206 OA
ENDBRANCH  22  24
ENDBRANCH   1  22
TORSDOF 7
ENDMDL
MODEL 6
REMARK VINA RESULT:    -6.380     14.430     17.604
REMARK INTER + INTRA:         -10.006
REMARK INTER:                  -8.621
REMARK INTRA:                  -1.385
REMARK UNBOUND:                -1.016
REMARK  7 active torsions:
REMARK  status: ('A' for Active; 'I' for Inactive)
REMARK    1  A    between atoms: S_2  and  N_5 
REMARK    2  A    between atoms: N_5  and  C_7 
REMARK    3  A    between atoms: C_9  and  C_10 
REMARK    4  A    between atoms: C_10  and  C_11 
REMARK    5  A    between atoms: C_11  and  C_12 
REMARK    6  A    between atoms: C_15  and  C_16 
REMARK       I    between atoms: C_16  and  N_18 
REMARK    7  A    between atoms: N_18  and  C_20 
ROOT
HETATM    1  C   UNL     1      24.048  -3.583  24.428  1.00  0.00     0.108 C 
HETATM    2  C   UNL     1      23.969  -2.681  23.536  1.00  0.00    -0.017 A 
HETATM    3  C   UNL     1      23.988  -1.440  23.223  1.00  0.00     0.082 A 
HETATM    4  C   UNL     1      23.770  -1.731  22.039  1.00  0.00     0.031 A 
ENDROOT
BRANCH   4   5
HETATM    5  C   UNL     1      23.387  -1.951  20.773  1.00  0.00     0.253 C 
HETATM    6  O   UNL     1      22.247  -2.021  20.576  1.00  0.00    -0.268 OA
HETATM    7  N   UNL     1      24.398  -2.052  19.951  1.00  0.00    -0.321 N 
ATOM      8  HN  UNL     1      25.353  -1.971  20.299  1.00  0.00     0.169 HD
BRANCH   7   9
HETATM    9  C   UNL     1      24.188  -2.249  18.739  1.00  0.00     0.056 A 
HETATM   10  C   UNL     1      24.074  -3.325  17.949  1.00  0.00     0.117 A 
HETATM   11  N   UNL     1      23.897  -3.814  16.853  1.00  0.00    -0.373 N 
HETATM   12  C   UNL     1      23.657  -2.713  16.162  1.00  0.00     0.088 A 
ATOM     13  HN  UNL     1      23.925  -4.789  16.554  1.00  0.00     0.164 HD
HETATM   14  C   UNL     1      23.702  -1.509  16.544  1.00  0.00     0.026 A 
HETATM   15  C   UNL     1      23.939  -1.037  17.763  1.00  0.00    -0.033 A 
HETATM   16  C   UNL     1      23.994   0.428  18.232  1.00  0.00     0.050 C 
ENDBRANCH   7   9
ENDBRANCH   4   5
BRANCH   3  17
HETATM   17  C   UNL     1      23.297  -0.174  23.774  1.00  0.00    -0.012 C 
BRANCH  17  18
HETATM   18  C   UNL     1      22.403  -0.108  24.467  1.00  0.00    -0.003 C 
BRANCH  18  19
HETATM   19  C   UNL     1      21.016  -0.453  24.136  1.00  0.00    -0.001 C 
HETATM   20  C   UNL     1      20.572  -1.516  24.948  1.00  0.00    -0.010 C 
HETATM   21  C   UNL     1      20.953  -2.068  25.718  1.00  0.00     0.011 C 
ENDBRANCH  18  19
ENDBRANCH  17  18
ENDBRANCH   3  17
BRANCH   1  22
HETATM   22  N   UNL     1      23.699  -4.551  24.970  1.00  0.00    -0.295 N 
ATOM     23  HN  UNL     1      22.747  -4.862  24.774  1.00  0.00     0.177 HD
BRANCH  22  24
HETATM   24  S   UNL     1      24.556  -5.464  26.004  1.00  0.00     0.226 S 
HETATM   25  C   UNL     1      24.654  -4.552  27.452  1.00  0.00     0.186 C 
HETATM   26  O   UNL     1      23.907  -6.697  26.301  1.00  0.00    -0.206 OA
HETATM   27  O   UNL     1      25.892  -5.636  25.557  1.00  0.00    -0.206 OA
ENDBRANCH  22  24
ENDBRANCH   1  22
TORSDOF 7
ENDMDL
MODEL 7
REMARK VINA RESULT:    -6.264     21.923     24.570
REMARK INTER + INTRA:          -9.844
REMARK INTER:                  -8.232
REMARK INTRA:                  -1.612
REMARK UNBOUND:                -1.016
REMARK  7 active torsions:
REMARK  status: ('A' for Active; 'I' for Inactive)
REMARK    1  A    between atoms: S_2  and  N_5 
REMARK    2  A    between atoms: N_5  and  C_7 
REMARK    3  A    between atoms: C_9  and  C_10 
REMARK    4  A    between atoms: C_10  and  C_11 
REMARK    5  A    between atoms: C_11  and  C_12 
REMARK    6  A    between atoms: C_15  and  C_16 
REMARK       I    between atoms: C_16  and  N_18 
REMARK    7  A    between atoms: N_18  and  C_20 
ROOT
HETATM    1  C   UNL     1       7.148  13.459   1.537  1.00  0.00     0.108 C 
HETATM    2  C   UNL     1       6.138  12.714   1.734  1.00  0.00    -0.017 A 
HETATM    3  C   UNL     1       4.881  12.600   1.949  1.00  0.00     0.082 A 
HETATM    4  C   UNL     1       4.999  11.369   2.014  1.00  0.00     0.031 A 
ENDROOT
BRANCH   4   5
HETATM    5  C   UNL     1       5.066  10.050   2.249  1.00  0.00     0.253 C 
HETATM    6  O   UNL     1       5.621   9.407   1.460  1.00  0.00    -0.268 OA
HETATM    7  N   UNL     1       4.475   9.705   3.362  1.00  0.00    -0.321 N 
ATOM      8  HN  UNL     1       4.023  10.411   3.943  1.00  0.00     0.169 HD
BRANCH   7   9
HETATM    9  C   UNL     1       4.467   8.509   3.709  1.00  0.00     0.056 A 
HETATM   10  C   UNL     1       5.231   7.732   4.488  1.00  0.00     0.117 A 
HETATM   11  N   UNL     1       5.479   6.652   4.980  1.00  0.00    -0.373 N 
HETATM   12  C   UNL     1       4.434   5.971   4.543  1.00  0.00     0.088 A 
ATOM     13  HN  UNL     1       6.265   6.356   5.560  1.00  0.00     0.164 HD
HETATM   14  C   UNL     1       3.513   6.344   3.763  1.00  0.00     0.026 A 
HETATM   15  C   UNL     1       3.317   7.544   3.228  1.00  0.00    -0.033 A 
HETATM   16  C   UNL     1       2.197   8.002   2.278  1.00  0.00     0.050 C 
ENDBRANCH   7   9
ENDBRANCH   4   5
BRANCH   3  17
HETATM   17  C   UNL     1       3.885  13.263   2.925  1.00  0.00    -0.012 C 
BRANCH  17  18
HETATM   18  C   UNL     1       4.060  13.578   3.999  1.00  0.00    -0.003 C 
BRANCH  18  19
HETATM   19  C   UNL     1       3.701  12.816   5.201  1.00  0.00    -0.001 C 
HETATM   20  C   UNL     1       4.862  12.326   5.831  1.00  0.00    -0.010 C 
HETATM   21  C   UNL     1       5.870  12.399   5.685  1.00  0.00     0.011 C 
ENDBRANCH  18  19
ENDBRANCH  17  18
ENDBRANCH   3  17
BRANCH   1  22
HETATM   22  N   UNL     1       8.244  13.805   1.717  1.00  0.00    -0.295 N 
ATOM     23  HN  UNL     1       8.786  14.040   0.886  1.00  0.00     0.177 HD
BRANCH  22  24
HETATM   24  S   UNL     1       9.007  13.956   3.142  1.00  0.00     0.226 S 
HETATM   25  C   UNL     1       7.981  14.924   4.115  1.00  0.00     0.186 C 
HETATM   26  O   UNL     1       9.185  12.703   3.795  1.00  0.00    -0.206 OA
HETATM   27  O   UNL     1      10.219  14.684   3.004  1.00  0.00    -0.206 OA
ENDBRANCH  22  24
ENDBRANCH   1  22
TORSDOF 7
ENDMDL
MODEL 8
REMARK VINA RESULT:    -5.958     24.963     27.505
REMARK INTER + INTRA:          -9.412
REMARK INTER:                  -8.233
REMARK INTRA:                  -1.178
REMARK UNBOUND:                -1.016
REMARK  7 active torsions:
REMARK  status: ('A' for Active; 'I' for Inactive)
REMARK    1  A    between atoms: S_2  and  N_5 
REMARK    2  A    between atoms: N_5  and  C_7 
REMARK    3  A    between atoms: C_9  and  C_10 
REMARK    4  A    between atoms: C_10  and  C_11 
REMARK    5  A    between atoms: C_11  and  C_12 
REMARK    6  A    between atoms: C_15  and  C_16 
REMARK       I    between atoms: C_16  and  N_18 
REMARK    7  A    between atoms: N_18  and  C_20 
ROOT
HETATM    1  C   UNL     1       9.150  16.209   0.804  1.00  0.00     0.108 C 
HETATM    2  C   UNL     1       9.169  15.514   1.868  1.00  0.00    -0.017 A 
HETATM    3  C   UNL     1       8.705  14.536   2.551  1.00  0.00     0.082 A 
HETATM    4  C   UNL     1       9.467  14.821   3.484  1.00  0.00     0.031 A 
ENDROOT
BRANCH   4   5
HETATM    5  C   UNL     1      10.147  15.152   4.592  1.00  0.00     0.253 C 
HETATM    6  O   UNL     1      11.175  14.639   4.746  1.00  0.00    -0.268 OA
HETATM    7  N   UNL     1       9.513  16.023   5.331  1.00  0.00    -0.321 N 
ATOM      8  HN  UNL     1       8.598  16.371   5.045  1.00  0.00     0.169 HD
BRANCH   7   9
HETATM    9  C   UNL     1      10.033  16.427   6.388  1.00  0.00     0.056 A 
HETATM   10  C   UNL     1      10.132  15.970   7.644  1.00  0.00     0.117 A 
HETATM   11  N   UNL     1      10.518  16.101   8.785  1.00  0.00    -0.373 N 
HETATM   12  C   UNL     1      11.208  17.221   8.653  1.00  0.00     0.088 A 
ATOM     13  HN  UNL     1      10.359  15.517   9.607  1.00  0.00     0.164 HD
HETATM   14  C   UNL     1      11.328  17.965   7.639  1.00  0.00     0.026 A 
HETATM   15  C   UNL     1      10.845  17.779   6.415  1.00  0.00    -0.033 A 
HETATM   16  C   UNL     1      10.990  18.682   5.178  1.00  0.00     0.050 C 
ENDBRANCH   7   9
ENDBRANCH   4   5
BRANCH   3  17
HETATM   17  C   UNL     1       7.287  14.052   2.923  1.00  0.00    -0.012 C 
BRANCH  17  18
HETATM   18  C   UNL     1       6.552  13.475   2.283  1.00  0.00    -0.003 C 
BRANCH  18  19
HETATM   19  C   UNL     1       6.828  12.855   0.982  1.00  0.00    -0.001 C 
HETATM   20  C   UNL     1       6.656  11.459   1.061  1.00  0.00    -0.010 C 
HETATM   21  C   UNL     1       6.357  10.789   1.772  1.00  0.00     0.011 C 
ENDBRANCH  18  19
ENDBRANCH  17  18
ENDBRANCH   3  17
BRANCH   1  22
HETATM   22  N   UNL     1       9.136  17.206   0.206  1.00  0.00    -0.295 N 
ATOM     23  HN  UNL     1       8.977  17.129  -0.798  1.00  0.00     0.177 HD
BRANCH  22  24
HETATM   24  S   UNL     1       9.342  18.707   0.790  1.00  0.00     0.226 S 
HETATM   25  C   UNL     1       7.948  19.032   1.732  1.00  0.00     0.186 C 
HETATM   26  O   UNL     1      10.483  18.806   1.638  1.00  0.00    -0.206 OA
HETATM   27  O   UNL     1       9.345  19.672  -0.253  1.00  0.00    -0.206 OA
ENDBRANCH  22  24
ENDBRANCH   1  22
TORSDOF 7
ENDMDL
MODEL 9
REMARK VINA RESULT:    -5.826     23.843     26.516
REMARK INTER + INTRA:          -9.227
REMARK INTER:                  -8.297
REMARK INTRA:                  -0.930
REMARK UNBOUND:                -1.016
REMARK  7 active torsions:
REMARK  status: ('A' for Active; 'I' for Inactive)
REMARK    1  A    between atoms: S_2  and  N_5 
REMARK    2  A    between atoms: N_5  and  C_7 
REMARK    3  A    between atoms: C_9  and  C_10 
REMARK    4  A    between atoms: C_10  and  C_11 
REMARK    5  A    between atoms: C_11  and  C_12 
REMARK    6  A    between atoms: C_15  and  C_16 
REMARK       I    between atoms: C_16  and  N_18 
REMARK    7  A    between atoms: N_18  and  C_20 
ROOT
HETATM    1  C   UNL     1      10.738  16.010   4.607  1.00  0.00     0.108 C 
HETATM    2  C   UNL     1      10.118  15.231   3.818  1.00  0.00    -0.017 A 
HETATM    3  C   UNL     1       9.693  14.970   2.639  1.00  0.00     0.082 A 
HETATM    4  C   UNL     1       9.168  13.928   3.055  1.00  0.00     0.031 A 
ENDROOT
BRANCH   4   5
HETATM    5  C   UNL     1       8.447  12.868   3.450  1.00  0.00     0.253 C 
HETATM    6  O   UNL     1       8.974  12.112   4.153  1.00  0.00    -0.268 OA
HETATM    7  N   UNL     1       7.237  12.870   2.959  1.00  0.00    -0.321 N 
ATOM      8  HN  UNL     1       6.935  13.622   2.340  1.00  0.00     0.169 HD
BRANCH   7   9
HETATM    9  C   UNL     1       6.453  11.947   3.250  1.00  0.00     0.056 A 
HETATM   10  C   UNL     1       5.741  11.600   4.330  1.00  0.00     0.117 A 
HETATM   11  N   UNL     1       4.971  10.847   4.887  1.00  0.00    -0.373 N 
HETATM   12  C   UNL     1       4.703  10.030   3.883  1.00  0.00     0.088 A 
ATOM     13  HN  UNL     1       4.629  10.845   5.849  1.00  0.00     0.164 HD
HETATM   14  C   UNL     1       5.198  10.011   2.721  1.00  0.00     0.026 A 
HETATM   15  C   UNL     1       6.072  10.853   2.181  1.00  0.00    -0.033 A 
HETATM   16  C   UNL     1       6.677  10.834   0.766  1.00  0.00     0.050 C 
ENDBRANCH   7   9
ENDBRANCH   4   5
BRANCH   3  17
HETATM   17  C   UNL     1       8.921  15.766   1.566  1.00  0.00    -0.012 C 
BRANCH  17  18
HETATM   18  C   UNL     1       8.970  16.877   1.345  1.00  0.00    -0.003 C 
BRANCH  18  19
HETATM   19  C   UNL     1       7.885  17.710   0.816  1.00  0.00    -0.001 C 
HETATM   20  C   UNL     1       8.388  18.958   0.399  1.00  0.00    -0.010 C 
HETATM   21  C   UNL     1       9.305  19.404   0.339  1.00  0.00     0.011 C 
ENDBRANCH  18  19
ENDBRANCH  17  18
ENDBRANCH   3  17
BRANCH   1  22
HETATM   22  N   UNL     1      10.872  16.610   5.594  1.00  0.00    -0.295 N 
ATOM     23  HN  UNL     1      11.681  17.230   5.641  1.00  0.00     0.177 HD
BRANCH  22  24
HETATM   24  S   UNL     1       9.916  16.572   6.907  1.00  0.00     0.226 S 
HETATM   25  C   UNL     1      10.492  17.818   7.932  1.00  0.00     0.186 C 
HETATM   26  O   UNL     1       8.555  16.850   6.592  1.00  0.00    -0.206 OA
HETATM   27  O   UNL     1      10.079  15.361   7.630  1.00  0.00    -0.206 OA
ENDBRANCH  22  24
ENDBRANCH   1  22
TORSDOF 7
ENDMDL
