REMARK  7 active torsions:
REMARK  status: ('A' for Active; 'I' for Inactive)
REMARK    1  A    between atoms: S_2  and  N_5 
REMARK    2  A    between atoms: N_5  and  C_7 
REMARK    3  A    between atoms: C_9  and  C_10 
REMARK    4  A    between atoms: C_10  and  C_11 
REMARK    5  A    between atoms: C_11  and  C_12 
REMARK    6  A    between atoms: C_15  and  C_16 
REMARK       I    between atoms: C_16  and  N_18 
REMARK    7  A    between atoms: N_18  and  C_20 
ROOT
HETATM    1  C   UNL     1       8.970  -2.940  24.152  1.00  0.00     0.108 C 
HETATM    2  C   UNL     1       9.426  -1.954  23.493  1.00  0.00    -0.017 A 
HETATM    3  C   UNL     1      10.325  -1.055  23.340  1.00  0.00     0.082 A 
HETATM    4  C   UNL     1       9.718  -0.610  22.357  1.00  0.00     0.031 A 
ENDROOT
BRANCH   4   5
HETATM    5  C   UNL     1       9.049   0.023  21.382  1.00  0.00     0.253 C 
HETATM    6  O   UNL     1       9.542   0.977  20.945  1.00  0.00    -0.268 OA
HETATM    7  N   UNL     1       7.920  -0.562  21.083  1.00  0.00    -0.321 N 
ATOM      8  HN  UNL     1       7.631  -1.404  21.580  1.00  0.00     0.169 HD
BRANCH   7   9
HETATM    9  C   UNL     1       7.198  -0.085  20.187  1.00  0.00     0.056 A 
HETATM   10  C   UNL     1       7.262   0.007  18.852  1.00  0.00     0.117 A 
HETATM   11  N   UNL     1       6.788   0.370  17.797  1.00  0.00    -0.373 N 
HETATM   12  C   UNL     1       5.636   0.851  18.232  1.00  0.00     0.088 A 
ATOM     13  HN  UNL     1       7.167   0.319  16.851  1.00  0.00     0.164 HD
HETATM   14  C   UNL     1       5.223   0.970  19.420  1.00  0.00     0.026 A 
HETATM   15  C   UNL     1       5.813   0.579  20.544  1.00  0.00    -0.033 A 
HETATM   16  C   UNL     1       5.313   0.721  21.992  1.00  0.00     0.050 C 
ENDBRANCH   7   9
ENDBRANCH   4   5
BRANCH   3  17
HETATM   17  C   UNL     1      10.999  -0.028  24.275  1.00  0.00    -0.012 C 
BRANCH  17  18
HETATM   18  C   UNL     1      12.077   0.321  24.273  1.00  0.00    -0.003 C 
BRANCH  18  19
HETATM   19  C   UNL     1      13.159  -0.195  23.427  1.00  0.00    -0.001 C 
HETATM   20  C   UNL     1      12.693  -1.268  22.641  1.00  0.00    -0.010 C 
HETATM   21  C   UNL     1      11.801  -1.741  22.489  1.00  0.00     0.011 C 
ENDBRANCH  18  19
ENDBRANCH  17  18
ENDBRANCH   3  17
BRANCH   1  22
HETATM   22  N   UNL     1       8.131  -3.543  24.686  1.00  0.00    -0.295 N 
ATOM     23  HN  UNL     1       7.229  -3.581  24.211  1.00  0.00     0.177 HD
BRANCH  22  24
HETATM   24  S   UNL     1       8.233  -4.331  26.102  1.00  0.00     0.226 S 
HETATM   25  C   UNL     1       6.646  -4.883  26.438  1.00  0.00     0.186 C 
HETATM   26  O   UNL     1       9.091  -5.466  26.028  1.00  0.00    -0.206 OA
HETATM   27  O   UNL     1       8.575  -3.449  27.161  1.00  0.00    -0.206 OA
ENDBRANCH  22  24
ENDBRANCH   1  22
TORSDOF 7
