stable:False satoms:10 tatoms:24 sratio:0.4166666666666667
  -OEChem-08062416333D

 45 46  0     1  0  0  0  0  0999 V2000
   -6.6224   -5.3967  -26.1017 C   0  0  0  0  0  0  0  0  0  0  0  0
   -8.2604   -4.7950  -25.9447 S   0  0  0  0  0  0  0  0  0  0  0  0
   -9.1224   -5.9454  -25.8597 O   0  0  0  0  0  0  0  0  0  0  0  0
   -8.5695   -3.9903  -27.1030 O   0  0  0  0  0  0  0  0  0  0  0  0
   -8.2932   -3.9307  -24.5558 N   0  0  0  0  0  0  0  0  0  0  0  0
   -9.1866   -3.2658  -24.1537 C   0  0  0  0  0  0  0  0  0  0  0  0
   -9.6573   -2.2151  -23.6140 C   0  0  0  0  0  0  0  0  0  0  0  0
  -10.5645   -1.2964  -23.6168 C   0  0  2  0  0  0  0  0  0  0  0  0
  -11.1732   -0.3538  -24.6808 C   0  0  0  0  0  0  0  0  0  0  0  0
  -12.2438   -0.0267  -24.7910 C   0  0  0  0  0  0  0  0  0  0  0  0
  -13.4119   -0.4322  -24.0369 C   0  0  0  0  0  0  0  0  0  0  0  0
  -12.9907   -1.5147  -23.0807 C   0  0  0  0  0  0  0  0  0  0  0  0
  -12.1360   -1.9435  -22.8266 C   0  0  0  0  0  0  0  0  0  0  0  0
  -10.0344   -0.7913  -22.6203 C   0  0  2  0  0  0  0  0  0  0  0  0
   -9.4565   -0.1124  -21.6252 C   0  0  0  0  0  0  0  0  0  0  0  0
   -9.9380    0.8768  -21.3096 O   0  0  0  0  0  0  0  0  0  0  0  0
   -8.3612   -0.7144  -21.1703 N   0  0  0  0  0  0  0  0  0  0  0  0
   -7.7236   -0.1979  -20.2345 C   0  0  0  0  0  0  0  0  0  0  0  0
   -7.8539   -0.0191  -18.9586 C   0  0  0  0  0  0  0  0  0  0  0  0
   -7.4294    0.3706  -17.8584 N   0  0  0  0  0  0  0  0  0  0  0  0
   -6.2948    0.9306  -18.2561 C   0  0  0  0  0  0  0  0  0  0  0  0
   -5.7778    0.9388  -19.4387 C   0  0  0  0  0  0  0  0  0  0  0  0
   -6.2510    0.4519  -20.5590 C   0  0  0  0  0  0  0  0  0  0  0  0
   -5.6825    0.4108  -21.9450 C   0  0  0  0  0  0  0  0  0  0  0  0
   -6.5361   -5.9904  -27.0237 H   0  0  0  0  0  0  0  0  0  0  0  0
   -5.9230   -4.5487  -26.1450 H   0  0  0  0  0  0  0  0  0  0  0  0
   -6.3793   -6.0286  -25.2348 H   0  0  0  0  0  0  0  0  0  0  0  0
   -7.5156   -3.3054  -24.6225 H   0  0  0  0  0  0  0  0  0  0  0  0
  -10.0617   -3.8686  -24.3468 H   0  0  0  0  0  0  0  0  0  0  0  0
  -11.4602   -1.8040  -23.2296 H   0  0  0  0  0  0  0  0  0  0  0  0
  -10.4825    0.0409  -25.4111 H   0  0  0  0  0  0  0  0  0  0  0  0
  -12.4275    0.6949  -25.5732 H   0  0  0  0  0  0  0  0  0  0  0  0
  -14.1834   -0.8163  -24.7204 H   0  0  0  0  0  0  0  0  0  0  0  0
  -13.8121    0.4261  -23.4773 H   0  0  0  0  0  0  0  0  0  0  0  0
  -13.8287   -1.9253  -22.5371 H   0  0  0  0  0  0  0  0  0  0  0  0
  -12.1247   -2.7260  -22.0823 H   0  0  0  0  0  0  0  0  0  0  0  0
  -11.2143   -1.6292  -23.2936 H   0  0  0  0  0  0  0  0  0  0  0  0
  -10.6427   -1.3898  -21.9261 H   0  0  0  0  0  0  0  0  0  0  0  0
   -8.0527   -1.5745  -21.5765 H   0  0  0  0  0  0  0  0  0  0  0  0
   -8.8365   -0.4092  -18.7378 H   0  0  0  0  0  0  0  0  0  0  0  0
   -5.7311    1.4458  -17.4924 H   0  0  0  0  0  0  0  0  0  0  0  0
   -4.8128    1.4176  -19.5160 H   0  0  0  0  0  0  0  0  0  0  0  0
   -5.0965   -0.5111  -22.0743 H   0  0  0  0  0  0  0  0  0  0  0  0
   -6.5023    0.4299  -22.6782 H   0  0  0  0  0  0  0  0  0  0  0  0
   -5.0314    1.2837  -22.1002 H   0  0  0  0  0  0  0  0  0  0  0  0
 20 21  2  0  0  0  0
 19 20  1  0  0  0  0
 21 22  1  0  0  0  0
 18 19  2  0  0  0  0
 22 23  2  0  0  0  0
 18 23  1  0  0  0  0
 17 18  1  0  0  0  0
 23 24  1  0  0  0  0
 15 16  2  0  0  0  0
 15 17  1  0  0  0  0
 14 15  1  0  0  0  0
  8 14  1  0  0  0  0
  7 14  1  0  0  0  0
 12 13  2  0  0  0  0
 11 12  1  0  0  0  0
  7  8  1  0  0  0  0
  8  9  1  0  0  0  0
 10 11  1  0  0  0  0
  6  7  2  3  0  0  0
  5  6  1  0  0  0  0
  9 10  2  0  0  0  0
  2  5  1  0  0  0  0
  2  3  2  0  0  0  0
  1  2  1  0  0  0  0
  2  4  2  0  0  0  0
  1 25  1  0  0  0  0
  1 26  1  0  0  0  0
  1 27  1  0  0  0  0
  5 28  1  0  0  0  0
  6 29  1  0  0  0  0
  8 30  1  0  0  0  0
  9 31  1  0  0  0  0
 10 32  1  0  0  0  0
 11 33  1  0  0  0  0
 11 34  1  0  0  0  0
 12 35  1  0  0  0  0
 13 36  1  0  0  0  0
 13 37  1  0  0  0  0
 14 38  1  0  0  0  0
 17 39  1  0  0  0  0
 19 40  1  0  0  0  0
 21 41  1  0  0  0  0
 22 42  1  0  0  0  0
 24 43  1  0  0  0  0
 24 44  1  0  0  0  0
 24 45  1  0  0  0  0
M  END
> <Chemgauss4>
-12.858588

$$$$
