
  -OEChem-07252422123D

 31 32  0     0  0  0  0  0  0999 V2000
    8.3134   -2.8007   25.1076 B   0  0  0  0  0  0  0  0  0  0  0  0
    8.0088   -1.3827   25.2569 O   0  0  0  0  0  0  0  0  0  0  0  0
    8.3151   -0.8685   23.9895 C   0  0  0  0  0  0  0  0  0  0  0  0
    9.1944   -1.9719   23.2432 C   0  0  0  0  0  0  0  0  0  0  0  0
    8.8565   -3.2060   23.8164 O   0  0  0  0  0  0  0  0  0  0  0  0
   10.7235   -1.8001   23.4352 C   0  0  0  0  0  0  0  0  0  0  0  0
    8.9257   -2.0288   21.7227 C   0  0  0  0  0  0  0  0  0  0  0  0
    6.9608   -0.5698   23.3010 C   0  0  0  0  0  0  0  0  0  0  0  0
    9.0548    0.4759   24.1674 C   0  0  0  0  0  0  0  0  0  0  0  0
    7.7670   -3.8605   26.1199 C   0  0  0  0  0  0  0  0  0  0  0  0
    6.9521   -3.4676   27.1843 C   0  0  0  0  0  0  0  0  0  0  0  0
    6.4347   -4.4039   28.0274 N   0  0  0  0  0  0  0  0  0  0  0  0
    6.7404   -5.7383   27.9026 C   0  0  0  0  0  0  0  0  0  0  0  0
    7.5656   -6.1164   26.8771 N   0  0  0  0  0  0  0  0  0  0  0  0
    8.0582   -5.2206   25.9768 C   0  0  0  0  0  0  0  0  0  0  0  0
    6.1821   -6.7519   28.8457 C   0  0  0  0  0  0  0  0  0  0  0  0
    5.7317   -7.5426   29.6013 N   0  0  0  0  0  0  0  0  0  0  0  0
   10.9928   -1.7960   24.5115 H   0  0  0  0  0  0  0  0  0  0  0  0
   11.0841   -0.8630   22.9609 H   0  0  0  0  0  0  0  0  0  0  0  0
   11.2629   -2.6465   22.9553 H   0  0  0  0  0  0  0  0  0  0  0  0
    7.8611   -2.2623   21.5079 H   0  0  0  0  0  0  0  0  0  0  0  0
    9.5231   -2.8383   21.2500 H   0  0  0  0  0  0  0  0  0  0  0  0
    9.1885   -1.0637   21.2401 H   0  0  0  0  0  0  0  0  0  0  0  0
    6.3598   -1.4955   23.1852 H   0  0  0  0  0  0  0  0  0  0  0  0
    7.1123   -0.0975   22.3067 H   0  0  0  0  0  0  0  0  0  0  0  0
    6.3697    0.1417   23.9197 H   0  0  0  0  0  0  0  0  0  0  0  0
    9.9857    0.3471   24.7588 H   0  0  0  0  0  0  0  0  0  0  0  0
    8.4245    1.1938   24.7348 H   0  0  0  0  0  0  0  0  0  0  0  0
    9.3084    0.9220   23.1829 H   0  0  0  0  0  0  0  0  0  0  0  0
    6.6970   -2.4240   27.3293 H   0  0  0  0  0  0  0  0  0  0  0  0
    8.6893   -5.5708   25.1680 H   0  0  0  0  0  0  0  0  0  0  0  0
  1  2  1  0  0  0  0
  1  5  1  0  0  0  0
  1 10  1  0  0  0  0
  2  3  1  0  0  0  0
  3  4  1  0  0  0  0
  3  8  1  0  0  0  0
  3  9  1  0  0  0  0
  4  5  1  0  0  0  0
  4  6  1  0  0  0  0
  4  7  1  0  0  0  0
  6 18  1  0  0  0  0
  6 19  1  0  0  0  0
  6 20  1  0  0  0  0
  7 21  1  0  0  0  0
  7 22  1  0  0  0  0
  7 23  1  0  0  0  0
  8 24  1  0  0  0  0
  8 25  1  0  0  0  0
  8 26  1  0  0  0  0
  9 27  1  0  0  0  0
  9 28  1  0  0  0  0
  9 29  1  0  0  0  0
 10 11  1  0  0  0  0
 10 15  2  0  0  0  0
 11 12  2  0  0  0  0
 11 30  1  0  0  0  0
 12 13  1  0  0  0  0
 13 14  2  0  0  0  0
 13 16  1  0  0  0  0
 14 15  1  0  0  0  0
 15 31  1  0  0  0  0
 16 17  3  0  0  0  0
M  END
> <Chemgauss4>
-7.222987

$$$$
