
  -OEChem-07252422123D

 31 32  0     0  0  0  0  0  0999 V2000
   -8.2439   -2.8559  -25.0956 B   0  0  0  0  0  0  0  0  0  0  0  0
   -7.9394   -1.4380  -25.2449 O   0  0  0  0  0  0  0  0  0  0  0  0
   -8.2457   -0.9238  -23.9776 C   0  0  0  0  0  0  0  0  0  0  0  0
   -9.1249   -2.0272  -23.2313 C   0  0  0  0  0  0  0  0  0  0  0  0
   -8.7871   -3.2612  -23.8045 O   0  0  0  0  0  0  0  0  0  0  0  0
  -10.6540   -1.8554  -23.4233 C   0  0  0  0  0  0  0  0  0  0  0  0
   -8.8563   -2.0841  -21.7108 C   0  0  0  0  0  0  0  0  0  0  0  0
   -6.8914   -0.6251  -23.2891 C   0  0  0  0  0  0  0  0  0  0  0  0
   -8.9854    0.4206  -24.1555 C   0  0  0  0  0  0  0  0  0  0  0  0
   -7.6975   -3.9157  -26.1079 C   0  0  0  0  0  0  0  0  0  0  0  0
   -6.8827   -3.5228  -27.1724 C   0  0  0  0  0  0  0  0  0  0  0  0
   -6.3652   -4.4592  -28.0155 N   0  0  0  0  0  0  0  0  0  0  0  0
   -6.6710   -5.7936  -27.8907 C   0  0  0  0  0  0  0  0  0  0  0  0
   -7.4961   -6.1717  -26.8652 N   0  0  0  0  0  0  0  0  0  0  0  0
   -7.9888   -5.2759  -25.9649 C   0  0  0  0  0  0  0  0  0  0  0  0
   -6.1127   -6.8071  -28.8338 C   0  0  0  0  0  0  0  0  0  0  0  0
   -5.6623   -7.5979  -29.5894 N   0  0  0  0  0  0  0  0  0  0  0  0
  -10.9233   -1.8513  -24.4995 H   0  0  0  0  0  0  0  0  0  0  0  0
  -11.0147   -0.9183  -22.9490 H   0  0  0  0  0  0  0  0  0  0  0  0
  -11.1935   -2.7017  -22.9433 H   0  0  0  0  0  0  0  0  0  0  0  0
   -7.7917   -2.3176  -21.4959 H   0  0  0  0  0  0  0  0  0  0  0  0
   -9.4537   -2.8936  -21.2381 H   0  0  0  0  0  0  0  0  0  0  0  0
   -9.1191   -1.1189  -21.2282 H   0  0  0  0  0  0  0  0  0  0  0  0
   -6.2904   -1.5507  -23.1732 H   0  0  0  0  0  0  0  0  0  0  0  0
   -7.0429   -0.1527  -22.2948 H   0  0  0  0  0  0  0  0  0  0  0  0
   -6.3003    0.0865  -23.9078 H   0  0  0  0  0  0  0  0  0  0  0  0
   -9.9163    0.2919  -24.7469 H   0  0  0  0  0  0  0  0  0  0  0  0
   -8.3550    1.1386  -24.7229 H   0  0  0  0  0  0  0  0  0  0  0  0
   -9.2390    0.8668  -23.1709 H   0  0  0  0  0  0  0  0  0  0  0  0
   -6.6276   -2.4793  -27.3174 H   0  0  0  0  0  0  0  0  0  0  0  0
   -8.6199   -5.6261  -25.1561 H   0  0  0  0  0  0  0  0  0  0  0  0
  1  2  1  0  0  0  0
  1  5  1  0  0  0  0
  1 10  1  0  0  0  0
  2  3  1  0  0  0  0
  3  4  1  0  0  0  0
  3  8  1  0  0  0  0
  3  9  1  0  0  0  0
  4  5  1  0  0  0  0
  4  6  1  0  0  0  0
  4  7  1  0  0  0  0
  6 18  1  0  0  0  0
  6 19  1  0  0  0  0
  6 20  1  0  0  0  0
  7 21  1  0  0  0  0
  7 22  1  0  0  0  0
  7 23  1  0  0  0  0
  8 24  1  0  0  0  0
  8 25  1  0  0  0  0
  8 26  1  0  0  0  0
  9 27  1  0  0  0  0
  9 28  1  0  0  0  0
  9 29  1  0  0  0  0
 10 11  1  0  0  0  0
 10 15  2  0  0  0  0
 11 12  2  0  0  0  0
 11 30  1  0  0  0  0
 12 13  1  0  0  0  0
 13 14  2  0  0  0  0
 13 16  1  0  0  0  0
 14 15  1  0  0  0  0
 15 31  1  0  0  0  0
 16 17  3  0  0  0  0
M  END
> <Chemgauss4>
-7.248037

$$$$
