
 OpenBabel07202414153D

 69 72  0  0  1  0  0  0  0  0999 V2000
    5.1518   -2.5830    4.1833 C   0  0  0  0  0  0  0  0  0  0  0  0
    3.8918   -2.3936    3.5421 O   0  0  0  0  0  0  0  0  0  0  0  0
    3.8906   -1.3473    2.6377 C   0  0  0  0  0  0  0  0  0  0  0  0
    4.9596   -0.5289    2.5957 N   0  0  0  0  0  0  0  0  0  0  0  0
    4.8817    0.4899    1.7314 C   0  0  0  0  0  0  0  0  0  0  0  0
    3.8535    0.7540    0.9181 N   0  0  0  0  0  0  0  0  0  0  0  0
    2.8062   -0.0912    1.0075 C   0  0  0  0  0  0  0  0  0  0  0  0
    2.7635   -1.1917    1.8509 C   0  0  0  0  0  0  0  0  0  0  0  0
    1.6210   -2.1725    1.8501 C   0  0  3  0  0  0  0  0  0  0  0  0
    0.4444   -1.9725    2.7885 N   0  0  0  0  0  0  0  0  0  0  0  0
    0.2259   -1.0667    3.8567 C   0  0  0  0  0  0  0  0  0  0  0  0
   -0.7561   -1.1961    4.6016 O   0  0  0  0  0  0  0  0  0  0  0  0
    1.1558    0.0017    4.2090 C   0  0  0  0  0  0  0  0  0  0  0  0
    1.4631    0.3541    5.5083 C   0  0  0  0  0  0  0  0  0  0  0  0
    2.3667    1.3720    5.4866 O   0  0  0  0  0  0  0  0  0  0  0  0
    2.5100    1.6344    4.1624 C   0  0  0  0  0  0  0  0  0  0  0  0
    1.7638    0.9005    3.3651 N   0  0  0  0  0  0  0  0  0  0  0  0
   -0.3067   -3.1947    2.9564 C   0  0  0  0  0  0  0  0  0  0  0  0
   -1.4619   -3.4358    2.2209 C   0  0  0  0  0  0  0  0  0  0  0  0
   -2.2101   -4.6039    2.4498 C   0  0  0  0  0  0  0  0  0  0  0  0
   -1.8259   -5.5575    3.4139 C   0  0  0  0  0  0  0  0  0  0  0  0
   -2.6073   -6.8655    3.6602 C   0  0  0  0  0  0  0  0  0  0  0  0
   -3.8616   -7.0108    2.7694 C   0  0  0  0  0  0  0  0  0  0  0  0
   -1.6898   -8.0734    3.3631 C   0  0  0  0  0  0  0  0  0  0  0  0
   -3.0835   -6.9620    5.1267 C   0  0  0  0  0  0  0  0  0  0  0  0
   -0.6622   -5.2803    4.1547 C   0  0  0  0  0  0  0  0  0  0  0  0
    0.0845   -4.1165    3.9344 C   0  0  0  0  0  0  0  0  0  0  0  0
    1.1947   -2.4117    0.3366 C   0  0  0  0  0  0  0  0  0  0  0  0
    0.1853   -1.9245   -0.1676 O   0  0  0  0  0  0  0  0  0  0  0  0
    2.1303   -3.1121   -0.4269 N   0  0  0  0  0  0  0  0  0  0  0  0
    2.0101   -3.3198   -1.8770 C   0  0  0  0  0  0  0  0  0  0  0  0
    2.5192   -2.1260   -2.7115 C   0  0  0  0  0  0  0  0  0  0  0  0
    2.3934   -2.2269   -4.2229 C   0  0  0  0  0  0  0  0  0  0  0  0
    2.1548   -1.0484   -4.9640 C   0  0  0  0  0  0  0  0  0  0  0  0
    2.0979   -1.0639   -6.3633 C   0  0  0  0  0  0  0  0  0  0  0  0
    2.2879   -2.2492   -7.0544 C   0  0  0  0  0  0  0  0  0  0  0  0
    2.5439   -3.4132   -6.3402 C   0  0  0  0  0  0  0  0  0  0  0  0
    2.7473   -4.5577   -7.0045 F   0  0  0  0  0  0  0  0  0  0  0  0
    2.6036   -3.4109   -4.9409 C   0  0  0  0  0  0  0  0  0  0  0  0
    5.0261   -3.3563    4.9471 H   0  0  0  0  0  0  0  0  0  0  0  0
    5.5013   -1.6771    4.6913 H   0  0  0  0  0  0  0  0  0  0  0  0
    5.8932   -2.9395    3.4604 H   0  0  0  0  0  0  0  0  0  0  0  0
    5.7234    1.1723    1.6961 H   0  0  0  0  0  0  0  0  0  0  0  0
    1.9588    0.1791    0.3792 H   0  0  0  0  0  0  0  0  0  0  0  0
    2.0465   -3.1429    2.1481 H   0  0  0  0  0  0  0  0  0  0  0  0
    1.1604   -0.0030    6.4825 H   0  0  0  0  0  0  0  0  0  0  0  0
    3.2224    2.4012    3.8921 H   0  0  0  0  0  0  0  0  0  0  0  0
   -1.8088   -2.7140    1.4848 H   0  0  0  0  0  0  0  0  0  0  0  0
   -3.1098   -4.7364    1.8544 H   0  0  0  0  0  0  0  0  0  0  0  0
   -3.6037   -6.9985    1.7044 H   0  0  0  0  0  0  0  0  0  0  0  0
   -4.5814   -6.2054    2.9569 H   0  0  0  0  0  0  0  0  0  0  0  0
   -4.3792   -7.9578    2.9642 H   0  0  0  0  0  0  0  0  0  0  0  0
   -1.3258   -8.0484    2.3295 H   0  0  0  0  0  0  0  0  0  0  0  0
   -2.2235   -9.0201    3.5064 H   0  0  0  0  0  0  0  0  0  0  0  0
   -0.8141   -8.0981    4.0211 H   0  0  0  0  0  0  0  0  0  0  0  0
   -3.7660   -6.1439    5.3808 H   0  0  0  0  0  0  0  0  0  0  0  0
   -2.2532   -6.9373    5.8401 H   0  0  0  0  0  0  0  0  0  0  0  0
   -3.6216   -7.9052    5.3010 H   0  0  0  0  0  0  0  0  0  0  0  0
   -0.3214   -5.9674    4.9263 H   0  0  0  0  0  0  0  0  0  0  0  0
    0.9600   -3.9273    4.5499 H   0  0  0  0  0  0  0  0  0  0  0  0
    2.9267   -3.5327    0.0373 H   0  0  0  0  0  0  0  0  0  0  0  0
    0.9644   -3.5379   -2.1152 H   0  0  0  0  0  0  0  0  0  0  0  0
    2.6043   -4.2139   -2.1024 H   0  0  0  0  0  0  0  0  0  0  0  0
    3.5783   -1.9513   -2.4814 H   0  0  0  0  0  0  0  0  0  0  0  0
    1.9805   -1.2309   -2.3770 H   0  0  0  0  0  0  0  0  0  0  0  0
    2.0147   -0.0990   -4.4485 H   0  0  0  0  0  0  0  0  0  0  0  0
    1.9076   -0.1349   -6.9106 H   0  0  0  0  0  0  0  0  0  0  0  0
    2.2499   -2.2790   -8.1423 H   0  0  0  0  0  0  0  0  0  0  0  0
    2.8316   -4.3509   -4.4439 H   0  0  0  0  0  0  0  0  0  0  0  0
  1  2  1  0  0  0  0
  1 40  1  0  0  0  0
  1 41  1  0  0  0  0
  1 42  1  0  0  0  0
  2  3  1  0  0  0  0
  3  4  1  0  0  0  0
  3  8  2  0  0  0  0
  4  5  2  0  0  0  0
  5  6  1  0  0  0  0
  5 43  1  0  0  0  0
  6  7  2  0  0  0  0
  7  8  1  0  0  0  0
  7 44  1  0  0  0  0
  8  9  1  0  0  0  0
  9 10  1  0  0  0  0
  9 28  1  0  0  0  0
  9 45  1  0  0  0  0
 10 11  1  0  0  0  0
 10 18  1  0  0  0  0
 11 12  2  0  0  0  0
 11 13  1  0  0  0  0
 13 14  2  0  0  0  0
 13 17  1  0  0  0  0
 14 15  1  0  0  0  0
 14 46  1  0  0  0  0
 15 16  1  0  0  0  0
 16 17  2  0  0  0  0
 16 47  1  0  0  0  0
 18 19  1  0  0  0  0
 18 27  2  0  0  0  0
 19 20  2  0  0  0  0
 19 48  1  0  0  0  0
 20 21  1  0  0  0  0
 20 49  1  0  0  0  0
 21 22  1  0  0  0  0
 21 26  2  0  0  0  0
 22 23  1  0  0  0  0
 22 24  1  0  0  0  0
 22 25  1  0  0  0  0
 23 50  1  0  0  0  0
 23 51  1  0  0  0  0
 23 52  1  0  0  0  0
 24 53  1  0  0  0  0
 24 54  1  0  0  0  0
 24 55  1  0  0  0  0
 25 56  1  0  0  0  0
 25 57  1  0  0  0  0
 25 58  1  0  0  0  0
 26 27  1  0  0  0  0
 26 59  1  0  0  0  0
 27 60  1  0  0  0  0
 28 29  2  0  0  0  0
 28 30  1  0  0  0  0
 30 31  1  0  0  0  0
 30 61  1  0  0  0  0
 31 32  1  0  0  0  0
 31 62  1  0  0  0  0
 31 63  1  0  0  0  0
 32 33  1  0  0  0  0
 32 64  1  0  0  0  0
 32 65  1  0  0  0  0
 33 34  1  0  0  0  0
 33 39  2  0  0  0  0
 34 35  2  0  0  0  0
 34 66  1  0  0  0  0
 35 36  1  0  0  0  0
 35 67  1  0  0  0  0
 36 37  2  0  0  0  0
 36 68  1  0  0  0  0
 37 38  1  0  0  0  0
 37 39  1  0  0  0  0
 39 69  1  0  0  0  0
M  END
$$$$
