stable:False satoms:7 tatoms:24 sratio:0.2916666666666667
  -OEChem-07092417503D

 24 26  0     1  0  0  0  0  0999 V2000
    6.6272   -4.8141   26.4320 C   0  0  0  0  0  0  0  0  0  0  0  0
    8.1308   -4.3372   26.1205 S   0  0  0  0  0  0  0  0  0  0  0  0
    9.0115   -5.4736   26.0759 O   0  0  0  0  0  0  0  0  0  0  0  0
    8.5875   -3.4249   27.1463 O   0  0  0  0  0  0  0  0  0  0  0  0
    8.1282   -3.5865   24.6586 N   0  0  0  0  0  0  0  0  0  0  0  0
    8.9611   -2.9438   24.1395 C   0  0  0  0  0  0  0  0  0  0  0  0
    9.4127   -1.9644   23.4762 C   0  0  0  0  0  0  0  0  0  0  0  0
   10.3309   -1.0889   23.2743 C   0  0  1  0  0  0  0  0  0  0  0  0
   11.0249   -0.0150   24.2994 C   0  0  0  0  0  0  0  0  0  0  0  0
   12.1064    0.2600   24.2490 C   0  0  0  0  0  0  0  0  0  0  0  0
   13.1528   -0.1818   23.4859 C   0  0  0  0  0  0  0  0  0  0  0  0
   12.7236   -1.2669   22.6129 C   0  0  0  0  0  0  0  0  0  0  0  0
   11.8281   -1.7093   22.4886 C   0  0  0  0  0  0  0  0  0  0  0  0
    9.7204   -0.6071   22.3940 C   0  0  2  0  0  0  0  0  0  0  0  0
    9.0686    0.0271   21.3846 C   0  0  0  0  0  0  0  0  0  0  0  0
    9.5761    0.9672   20.9692 O   0  0  0  0  0  0  0  0  0  0  0  0
    7.9346   -0.5361   21.0843 N   0  0  0  0  0  0  0  0  0  0  0  0
    7.2185   -0.1011   20.1526 C   0  0  0  0  0  0  0  0  0  0  0  0
    7.2245   -0.0088   18.9074 C   0  0  0  0  0  0  0  0  0  0  0  0
    6.7642    0.3316   17.7554 N   0  0  0  0  0  0  0  0  0  0  0  0
    5.6661    0.8628   18.2395 C   0  0  0  0  0  0  0  0  0  0  0  0
    5.2618    0.9814   19.3958 C   0  0  0  0  0  0  0  0  0  0  0  0
    5.8069    0.6071   20.5305 C   0  0  0  0  0  0  0  0  0  0  0  0
    5.3167    0.7321   22.0244 C   0  0  0  0  0  0  0  0  0  0  0  0
 20 21  2  0  0  0  0
 19 20  1  0  0  0  0
 21 22  1  0  0  0  0
 18 19  2  0  0  0  0
 22 23  2  0  0  0  0
 18 23  1  0  0  0  0
 17 18  1  0  0  0  0
 23 24  1  0  0  0  0
 15 16  2  0  0  0  0
 15 17  1  0  0  0  0
 14 15  1  0  0  0  0
  8 14  1  0  0  0  0
  7 14  1  0  0  0  0
 12 13  1  0  0  0  0
  8 13  1  0  0  0  0
 11 12  2  0  0  0  0
  7  8  1  0  0  0  0
  8  9  1  0  0  0  0
  6  7  2  3  0  0  0
 10 11  1  0  0  0  0
  5  6  1  0  0  0  0
  9 10  2  0  0  0  0
  2  5  1  0  0  0  0
  2  3  2  0  0  0  0
  1  2  1  0  0  0  0
  2  4  2  0  0  0  0
M  END
> <Shapegauss>
-286.910919

$$$$
