stable:False satoms:7 tatoms:24 sratio:0.2916666666666667
  -OEChem-08062415333D

 43 45  0     1  0  0  0  0  0999 V2000
   -6.7499   -4.7600  -26.6123 C   0  0  0  0  0  0  0  0  0  0  0  0
   -8.2718   -4.3770  -26.2626 S   0  0  0  0  0  0  0  0  0  0  0  0
   -9.0814   -5.5647  -26.2085 O   0  0  0  0  0  0  0  0  0  0  0  0
   -8.8061   -3.4858  -27.2693 O   0  0  0  0  0  0  0  0  0  0  0  0
   -8.2805   -3.6390  -24.7942 N   0  0  0  0  0  0  0  0  0  0  0  0
   -9.1383   -3.0517  -24.2505 C   0  0  0  0  0  0  0  0  0  0  0  0
   -9.6324   -2.1065  -23.5682 C   0  0  0  0  0  0  0  0  0  0  0  0
  -10.5966   -1.2895  -23.3375 C   0  0  1  0  0  0  0  0  0  0  0  0
  -11.3773   -0.2514  -24.3368 C   0  0  0  0  0  0  0  0  0  0  0  0
  -12.4719   -0.0424  -24.2594 C   0  0  0  0  0  0  0  0  0  0  0  0
  -13.4720   -0.5524  -23.4769 C   0  0  0  0  0  0  0  0  0  0  0  0
  -12.9584   -1.6165  -22.6239 C   0  0  0  0  0  0  0  0  0  0  0  0
  -12.0353   -2.0051  -22.5240 C   0  0  0  0  0  0  0  0  0  0  0  0
   -9.9959   -0.7787  -22.4669 C   0  0  2  0  0  0  0  0  0  0  0  0
   -9.3602   -0.1144  -21.4667 C   0  0  0  0  0  0  0  0  0  0  0  0
   -9.9135    0.7902  -21.0312 O   0  0  0  0  0  0  0  0  0  0  0  0
   -8.1878   -0.6106  -21.1973 N   0  0  0  0  0  0  0  0  0  0  0  0
   -7.4778   -0.1405  -20.2780 C   0  0  0  0  0  0  0  0  0  0  0  0
   -7.4605   -0.0585  -19.0322 C   0  0  0  0  0  0  0  0  0  0  0  0
   -6.9950    0.2999  -17.8878 N   0  0  0  0  0  0  0  0  0  0  0  0
   -5.9423    0.9001  -18.3917 C   0  0  0  0  0  0  0  0  0  0  0  0
   -5.5726    1.0519  -19.5557 C   0  0  0  0  0  0  0  0  0  0  0  0
   -6.1204    0.6543  -20.6812 C   0  0  0  0  0  0  0  0  0  0  0  0
   -5.6732    0.8203  -22.1846 C   0  0  0  0  0  0  0  0  0  0  0  0
   -6.7124   -5.2571  -27.5929 H   0  0  0  0  0  0  0  0  0  0  0  0
   -6.1392   -3.8455  -26.6415 H   0  0  0  0  0  0  0  0  0  0  0  0
   -6.3565   -5.4392  -25.8417 H   0  0  0  0  0  0  0  0  0  0  0  0
   -7.5298   -2.9805  -24.8477 H   0  0  0  0  0  0  0  0  0  0  0  0
  -10.0004   -3.6736  -24.4414 H   0  0  0  0  0  0  0  0  0  0  0  0
  -10.8085    0.2530  -25.1039 H   0  0  0  0  0  0  0  0  0  0  0  0
  -12.8114    0.7205  -24.9443 H   0  0  0  0  0  0  0  0  0  0  0  0
  -14.4975   -0.2140  -23.4898 H   0  0  0  0  0  0  0  0  0  0  0  0
  -13.7015   -2.0693  -21.9842 H   0  0  0  0  0  0  0  0  0  0  0  0
  -11.8140   -1.9962  -21.4465 H   0  0  0  0  0  0  0  0  0  0  0  0
  -12.1008   -3.0451  -22.8762 H   0  0  0  0  0  0  0  0  0  0  0  0
  -10.4220   -1.4866  -21.7407 H   0  0  0  0  0  0  0  0  0  0  0  0
   -7.8469   -1.3821  -21.7344 H   0  0  0  0  0  0  0  0  0  0  0  0
   -8.3510   -0.6034  -18.7555 H   0  0  0  0  0  0  0  0  0  0  0  0
   -5.2846    1.3378  -17.6553 H   0  0  0  0  0  0  0  0  0  0  0  0
   -4.6493    1.6003  -19.6700 H   0  0  0  0  0  0  0  0  0  0  0  0
   -5.0364   -0.0286  -22.4741 H   0  0  0  0  0  0  0  0  0  0  0  0
   -6.5630    0.8482  -22.8307 H   0  0  0  0  0  0  0  0  0  0  0  0
   -5.1085    1.7575  -22.2976 H   0  0  0  0  0  0  0  0  0  0  0  0
 20 21  2  0  0  0  0
 19 20  1  0  0  0  0
 21 22  1  0  0  0  0
 18 19  2  0  0  0  0
 22 23  2  0  0  0  0
 18 23  1  0  0  0  0
 17 18  1  0  0  0  0
 23 24  1  0  0  0  0
 15 16  2  0  0  0  0
 15 17  1  0  0  0  0
 14 15  1  0  0  0  0
  8 14  1  0  0  0  0
  7 14  1  0  0  0  0
 12 13  1  0  0  0  0
  8 13  1  0  0  0  0
 11 12  2  0  0  0  0
  7  8  1  0  0  0  0
  8  9  1  0  0  0  0
  6  7  2  3  0  0  0
 10 11  1  0  0  0  0
  5  6  1  0  0  0  0
  9 10  2  0  0  0  0
  2  5  1  0  0  0  0
  2  3  2  0  0  0  0
  1  2  1  0  0  0  0
  2  4  2  0  0  0  0
  1 25  1  0  0  0  0
  1 26  1  0  0  0  0
  1 27  1  0  0  0  0
  5 28  1  0  0  0  0
  6 29  1  0  0  0  0
  9 30  1  0  0  0  0
 10 31  1  0  0  0  0
 11 32  1  0  0  0  0
 12 33  1  0  0  0  0
 13 34  1  0  0  0  0
 13 35  1  0  0  0  0
 14 36  1  0  0  0  0
 17 37  1  0  0  0  0
 19 38  1  0  0  0  0
 21 39  1  0  0  0  0
 22 40  1  0  0  0  0
 24 41  1  0  0  0  0
 24 42  1  0  0  0  0
 24 43  1  0  0  0  0
M  END
> <Chemgauss4>
-12.424625

$$$$
