stable:False satoms:7 tatoms:24 sratio:0.2916666666666667
  -OEChem-08062415333D

 43 45  0     1  0  0  0  0  0999 V2000
    6.4892   -5.1188   26.2110 C   0  0  0  0  0  0  0  0  0  0  0  0
    7.9870   -4.5468   26.0899 S   0  0  0  0  0  0  0  0  0  0  0  0
    8.9348   -5.6280   26.1319 O   0  0  0  0  0  0  0  0  0  0  0  0
    8.2621   -3.6343   27.1784 O   0  0  0  0  0  0  0  0  0  0  0  0
    8.1117   -3.7625   24.6512 N   0  0  0  0  0  0  0  0  0  0  0  0
    8.9592   -3.0595   24.2466 C   0  0  0  0  0  0  0  0  0  0  0  0
    9.4253   -2.0395   23.6589 C   0  0  0  0  0  0  0  0  0  0  0  0
   10.3056   -1.1068   23.5833 C   0  0  1  0  0  0  0  0  0  0  0  0
   10.8060   -0.0190   24.7022 C   0  0  0  0  0  0  0  0  0  0  0  0
   11.8669    0.3203   24.7864 C   0  0  0  0  0  0  0  0  0  0  0  0
   13.0215   -0.0406   24.1467 C   0  0  0  0  0  0  0  0  0  0  0  0
   12.7662   -1.1277   23.2103 C   0  0  0  0  0  0  0  0  0  0  0  0
   11.9206   -1.6189   22.9721 C   0  0  0  0  0  0  0  0  0  0  0  0
    9.7753   -0.6407   22.6445 C   0  0  2  0  0  0  0  0  0  0  0  0
    9.2101   -0.0217   21.5752 C   0  0  0  0  0  0  0  0  0  0  0  0
    9.7047    0.9564   21.2396 O   0  0  0  0  0  0  0  0  0  0  0  0
    8.1564   -0.6433   21.1317 N   0  0  0  0  0  0  0  0  0  0  0  0
    7.5305   -0.2288   20.1285 C   0  0  0  0  0  0  0  0  0  0  0  0
    7.6783   -0.1062   18.8947 C   0  0  0  0  0  0  0  0  0  0  0  0
    7.3378    0.2342   17.7018 N   0  0  0  0  0  0  0  0  0  0  0  0
    6.1596    0.6880   18.0599 C   0  0  0  0  0  0  0  0  0  0  0  0
    5.6146    0.7546   19.1613 C   0  0  0  0  0  0  0  0  0  0  0  0
    6.0433    0.3857   20.3466 C   0  0  0  0  0  0  0  0  0  0  0  0
    5.3727    0.4455   21.7729 C   0  0  0  0  0  0  0  0  0  0  0  0
    6.3753   -5.6506   27.1671 H   0  0  0  0  0  0  0  0  0  0  0  0
    5.7736   -4.2844   26.1682 H   0  0  0  0  0  0  0  0  0  0  0  0
    6.2935   -5.8126   25.3801 H   0  0  0  0  0  0  0  0  0  0  0  0
    7.2863   -3.1995   24.6079 H   0  0  0  0  0  0  0  0  0  0  0  0
    9.8553   -3.5815   24.5482 H   0  0  0  0  0  0  0  0  0  0  0  0
   10.0780    0.3877   25.3884 H   0  0  0  0  0  0  0  0  0  0  0  0
   12.0114    1.0937   25.5262 H   0  0  0  0  0  0  0  0  0  0  0  0
   13.9862    0.4159   24.3125 H   0  0  0  0  0  0  0  0  0  0  0  0
   13.6413   -1.4671   22.6760 H   0  0  0  0  0  0  0  0  0  0  0  0
   11.8533   -1.5988   21.8744 H   0  0  0  0  0  0  0  0  0  0  0  0
   12.0622   -2.6554   23.3119 H   0  0  0  0  0  0  0  0  0  0  0  0
   10.3821   -1.2677   21.9747 H   0  0  0  0  0  0  0  0  0  0  0  0
    7.8400   -1.4678   21.6008 H   0  0  0  0  0  0  0  0  0  0  0  0
    8.6585   -0.5322   18.7392 H   0  0  0  0  0  0  0  0  0  0  0  0
    5.5634    1.0702   17.2445 H   0  0  0  0  0  0  0  0  0  0  0  0
    4.6244    1.1858   19.1515 H   0  0  0  0  0  0  0  0  0  0  0  0
    4.8098   -0.4822   21.9532 H   0  0  0  0  0  0  0  0  0  0  0  0
    6.1530    0.5559   22.5404 H   0  0  0  0  0  0  0  0  0  0  0  0
    4.6878    1.3050   21.8202 H   0  0  0  0  0  0  0  0  0  0  0  0
 20 21  2  0  0  0  0
 19 20  1  0  0  0  0
 21 22  1  0  0  0  0
 18 19  2  0  0  0  0
 22 23  2  0  0  0  0
 18 23  1  0  0  0  0
 17 18  1  0  0  0  0
 23 24  1  0  0  0  0
 15 16  2  0  0  0  0
 15 17  1  0  0  0  0
 14 15  1  0  0  0  0
  8 14  1  0  0  0  0
  7 14  1  0  0  0  0
 12 13  1  0  0  0  0
  8 13  1  0  0  0  0
 11 12  2  0  0  0  0
  7  8  1  0  0  0  0
  8  9  1  0  0  0  0
  6  7  2  3  0  0  0
 10 11  1  0  0  0  0
  5  6  1  0  0  0  0
  9 10  2  0  0  0  0
  2  5  1  0  0  0  0
  2  3  2  0  0  0  0
  1  2  1  0  0  0  0
  2  4  2  0  0  0  0
  1 25  1  0  0  0  0
  1 26  1  0  0  0  0
  1 27  1  0  0  0  0
  5 28  1  0  0  0  0
  6 29  1  0  0  0  0
  9 30  1  0  0  0  0
 10 31  1  0  0  0  0
 11 32  1  0  0  0  0
 12 33  1  0  0  0  0
 13 34  1  0  0  0  0
 13 35  1  0  0  0  0
 14 36  1  0  0  0  0
 17 37  1  0  0  0  0
 19 38  1  0  0  0  0
 21 39  1  0  0  0  0
 22 40  1  0  0  0  0
 24 41  1  0  0  0  0
 24 42  1  0  0  0  0
 24 43  1  0  0  0  0
M  END
> <Chemgauss4>
-12.725750

$$$$
