stable:False satoms:12 tatoms:24 sratio:0.5
  -OEChem-07092417433D

 24 24  0     0  0  0  0  0  0999 V2000
    6.6791   -4.8621   26.3851 O   0  0  0  0  0  0  0  0  0  0  0  0
    8.1546   -4.2987   26.1293 S   0  0  0  0  0  0  0  0  0  0  0  0
    9.0435   -5.4405   26.0935 O   0  0  0  0  0  0  0  0  0  0  0  0
    8.5437   -3.3489   27.1328 O   0  5  0  0  0  0  0  0  0  0  0  0
    8.1295   -3.6010   24.6540 N   0  0  0  0  0  0  0  0  0  0  0  0
    8.9280   -2.8692   24.1979 C   0  0  0  0  0  0  0  0  0  0  0  0
    9.4276   -2.0331   23.7055 C   0  0  0  0  0  0  0  0  0  0  0  0
   10.3015   -0.9961   23.3030 C   0  0  0  0  0  0  0  0  0  0  0  0
   11.5745   -0.4046   23.8269 C   0  0  0  0  0  0  0  0  0  0  0  0
   11.7271    0.3440   24.4786 H   0  0  0  0  0  0  0  0  0  0  0  0
   13.5673   -0.4635   23.2380 H   0  0  0  0  0  0  0  0  0  0  0  0
   12.6516   -0.9867   23.1675 C   0  0  0  0  0  0  0  0  0  0  0  0
   12.4279   -1.9199   22.6772 H   0  0  0  0  0  0  0  0  0  0  0  0
    9.6761   -0.6379   22.4006 C   0  0  0  0  0  0  0  0  0  0  0  0
    8.9874    0.0257   21.4521 C   0  0  0  0  0  0  0  0  0  0  0  0
    9.5685    0.9223   20.9911 O   0  0  0  0  0  0  0  0  0  0  0  0
    7.7400   -0.4295   21.2165 N   0  0  0  0  0  0  0  0  0  0  0  0
    7.0182    0.0684   20.2487 C   0  0  0  0  0  0  0  0  0  0  0  0
    7.2789    0.0474   19.0093 N   0  0  0  0  0  0  0  0  0  0  0  0
    6.1018    0.5725   17.2506 N   0  0  0  0  0  0  0  0  0  0  0  0
    6.0003    0.6221   18.3545 C   0  0  0  0  0  0  0  0  0  0  0  0
    5.1265    0.9867   19.4058 N   0  0  0  0  0  0  0  0  0  0  0  0
    5.6731    0.6512   20.4971 C   0  0  0  0  0  0  0  0  0  0  0  0
    5.2574    0.7613   21.4812 H   0  0  0  0  0  0  0  0  0  0  0  0
 20 21  1  0  0  0  0
 19 21  1  0  0  0  0
 21 22  2  0  0  0  0
 18 19  1  0  0  0  0
 22 23  1  0  0  0  0
 18 23  2  0  0  0  0
 17 18  1  0  0  0  0
 23 24  1  0  0  0  0
 15 16  2  0  0  0  0
 15 17  1  0  0  0  0
 14 15  1  0  0  0  0
  8 14  2  3  0  0  0
 12 13  1  0  0  0  0
 11 12  1  0  0  0  0
  9 12  2  0  0  0  0
  7  8  1  0  0  0  0
  8  9  1  0  0  0  0
  6  7  3  0  0  0  0
  9 10  1  0  0  0  0
  5  6  1  0  0  0  0
  2  5  1  0  0  0  0
  2  3  2  0  0  0  0
  1  2  2  0  0  0  0
  2  4  1  0  0  0  0
M  CHG  1   4  -1
M  END
> <Shapegauss>
-243.731171

$$$$
