stable:False satoms:8 tatoms:24 sratio:0.3333333333333333
  -OEChem-07092417463D

 24 26  0     1  0  0  0  0  0999 V2000
    6.5379   -4.8288   26.4926 C   0  0  0  0  0  0  0  0  0  0  0  0
    8.1901   -4.2816   26.1274 S   0  0  0  0  0  0  0  0  0  0  0  0
    9.0060   -5.4504   26.0281 O   0  0  0  0  0  0  0  0  0  0  0  0
    8.6017   -3.4146   27.1576 O   0  0  0  0  0  0  0  0  0  0  0  0
    8.0820   -3.4928   24.6763 N   0  0  0  0  0  0  0  0  0  0  0  0
    8.8677   -2.8926   24.1787 C   0  0  0  0  0  0  0  0  0  0  0  0
    9.4066   -1.9333   23.5167 C   0  0  0  0  0  0  0  0  0  0  0  0
   10.3603   -1.1047   23.2507 C   0  0  1  0  0  0  0  0  0  0  0  0
   11.0876   -0.0189   24.2665 C   0  0  0  0  0  0  0  0  0  0  0  0
   12.0906    0.3158   24.2229 C   0  0  0  0  0  0  0  0  0  0  0  0
   13.2228   -0.1136   23.4345 C   0  0  0  0  0  0  0  0  0  0  0  0
   12.7503   -1.2239   22.6003 C   0  0  0  0  0  0  0  0  0  0  0  0
   11.8622   -1.6116   22.4863 C   0  0  0  0  0  0  0  0  0  0  0  0
    9.6482   -0.6731   22.4302 C   0  0  3  0  0  0  0  0  0  0  0  0
    9.0353    0.0314   21.3871 C   0  0  0  0  0  0  0  0  0  0  0  0
    9.5602    0.9832   21.0025 O   0  0  0  0  0  0  0  0  0  0  0  0
    7.9446   -0.5950   21.0891 N   0  0  0  0  0  0  0  0  0  0  0  0
    7.2211   -0.1245   20.1869 C   0  0  0  0  0  0  0  0  0  0  0  0
    7.2549   -0.0228   18.9114 C   0  0  0  0  0  0  0  0  0  0  0  0
    6.7740    0.2555   17.7436 N   0  0  0  0  0  0  0  0  0  0  0  0
    5.7535    0.7711   18.2363 C   0  0  0  0  0  0  0  0  0  0  0  0
    5.3002    0.9254   19.3522 C   0  0  0  0  0  0  0  0  0  0  0  0
    5.7901    0.5405   20.5236 C   0  0  0  0  0  0  0  0  0  0  0  0
    5.2362    0.6693   21.9954 Cl  0  0  0  0  0  0  0  0  0  0  0  0
 20 21  2  0  0  0  0
 19 20  1  0  0  0  0
 21 22  1  0  0  0  0
 18 19  2  0  0  0  0
 22 23  2  0  0  0  0
 18 23  1  0  0  0  0
 17 18  1  0  0  0  0
 23 24  1  0  0  0  0
 15 16  2  0  0  0  0
 15 17  1  0  0  0  0
 14 15  1  0  0  0  0
  8 14  1  0  0  0  0
  7 14  1  0  0  0  0
 12 13  1  0  0  0  0
  8 13  1  0  0  0  0
 11 12  2  0  0  0  0
  7  8  1  0  0  0  0
  8  9  1  0  0  0  0
 10 11  1  0  0  0  0
  6  7  2  3  0  0  0
  5  6  1  0  0  0  0
  9 10  2  0  0  0  0
  2  5  1  0  0  0  0
  2  3  2  0  0  0  0
  1  2  1  0  0  0  0
  2  4  2  0  0  0  0
M  END
> <Shapegauss>
-285.989685

$$$$
