stable:False satoms:8 tatoms:24 sratio:0.3333333333333333
  -OEChem-08062412513D

 40 42  0     1  0  0  0  0  0999 V2000
   -6.0796   -5.2009  -26.3759 C   0  0  0  0  0  0  0  0  0  0  0  0
   -7.7398   -4.6045  -26.1509 S   0  0  0  0  0  0  0  0  0  0  0  0
   -8.5873   -5.7509  -26.0555 O   0  0  0  0  0  0  0  0  0  0  0  0
   -8.0601   -3.7785  -27.2452 O   0  0  0  0  0  0  0  0  0  0  0  0
   -7.7127   -3.7511  -24.7329 N   0  0  0  0  0  0  0  0  0  0  0  0
   -8.5165   -3.1128  -24.3185 C   0  0  0  0  0  0  0  0  0  0  0  0
   -9.0770   -2.1131  -23.7394 C   0  0  0  0  0  0  0  0  0  0  0  0
  -10.0272   -1.2542  -23.5777 C   0  0  1  0  0  0  0  0  0  0  0  0
  -10.6584   -0.2028  -24.6894 C   0  0  0  0  0  0  0  0  0  0  0  0
  -11.6540    0.1535  -24.7305 C   0  0  0  0  0  0  0  0  0  0  0  0
  -12.8469   -0.2160  -24.0036 C   0  0  0  0  0  0  0  0  0  0  0  0
  -12.4581   -1.2954  -23.0894 C   0  0  0  0  0  0  0  0  0  0  0  0
  -11.5890   -1.6949  -22.8969 C   0  0  0  0  0  0  0  0  0  0  0  0
   -9.3629   -0.7990  -22.7303 C   0  0  3  0  0  0  0  0  0  0  0  0
   -8.8065   -0.0589  -21.6802 C   0  0  0  0  0  0  0  0  0  0  0  0
   -9.3343    0.9200  -21.3763 O   0  0  0  0  0  0  0  0  0  0  0  0
   -7.7534   -0.6923  -21.2795 N   0  0  0  0  0  0  0  0  0  0  0  0
   -7.0824   -0.1947  -20.3516 C   0  0  0  0  0  0  0  0  0  0  0  0
   -7.2007   -0.0329  -19.0874 C   0  0  0  0  0  0  0  0  0  0  0  0
   -6.7942    0.2900  -17.9029 N   0  0  0  0  0  0  0  0  0  0  0  0
   -5.7309    0.7616  -18.3467 C   0  0  0  0  0  0  0  0  0  0  0  0
   -5.1992    0.8546  -19.4344 C   0  0  0  0  0  0  0  0  0  0  0  0
   -5.6168    0.4253  -20.6183 C   0  0  0  0  0  0  0  0  0  0  0  0
   -4.9611    0.4742  -22.0526 Cl  0  0  0  0  0  0  0  0  0  0  0  0
   -6.0215   -5.7827  -27.3076 H   0  0  0  0  0  0  0  0  0  0  0  0
   -5.3881   -4.3473  -26.4330 H   0  0  0  0  0  0  0  0  0  0  0  0
   -5.8019   -5.8415  -25.5259 H   0  0  0  0  0  0  0  0  0  0  0  0
   -6.9207   -3.1459  -24.8133 H   0  0  0  0  0  0  0  0  0  0  0  0
   -9.3824   -3.7163  -24.5474 H   0  0  0  0  0  0  0  0  0  0  0  0
   -9.9839    0.1572  -25.4523 H   0  0  0  0  0  0  0  0  0  0  0  0
  -11.8075    0.9424  -25.4519 H   0  0  0  0  0  0  0  0  0  0  0  0
  -13.8304    0.2169  -24.1120 H   0  0  0  0  0  0  0  0  0  0  0  0
  -13.2780   -1.7229  -22.5314 H   0  0  0  0  0  0  0  0  0  0  0  0
  -11.4629   -1.5804  -21.8101 H   0  0  0  0  0  0  0  0  0  0  0  0
  -11.7104   -2.7604  -23.1416 H   0  0  0  0  0  0  0  0  0  0  0  0
   -8.8829   -0.1306  -23.4602 H   0  0  0  0  0  0  0  0  0  0  0  0
   -7.4833   -1.5578  -21.7014 H   0  0  0  0  0  0  0  0  0  0  0  0
   -8.2198   -0.3418  -18.9076 H   0  0  0  0  0  0  0  0  0  0  0  0
   -5.1278    1.1996  -17.5651 H   0  0  0  0  0  0  0  0  0  0  0  0
   -4.2456    1.3616  -19.4388 H   0  0  0  0  0  0  0  0  0  0  0  0
 20 21  2  0  0  0  0
 19 20  1  0  0  0  0
 21 22  1  0  0  0  0
 18 19  2  0  0  0  0
 22 23  2  0  0  0  0
 18 23  1  0  0  0  0
 17 18  1  0  0  0  0
 23 24  1  0  0  0  0
 15 16  2  0  0  0  0
 15 17  1  0  0  0  0
 14 15  1  0  0  0  0
  8 14  1  0  0  0  0
  7 14  1  0  0  0  0
 12 13  1  0  0  0  0
  8 13  1  0  0  0  0
 11 12  2  0  0  0  0
  7  8  1  0  0  0  0
  8  9  1  0  0  0  0
 10 11  1  0  0  0  0
  6  7  2  3  0  0  0
  5  6  1  0  0  0  0
  9 10  2  0  0  0  0
  2  5  1  0  0  0  0
  2  3  2  0  0  0  0
  1  2  1  0  0  0  0
  2  4  2  0  0  0  0
  1 25  1  0  0  0  0
  1 26  1  0  0  0  0
  1 27  1  0  0  0  0
  5 28  1  0  0  0  0
  6 29  1  0  0  0  0
  9 30  1  0  0  0  0
 10 31  1  0  0  0  0
 11 32  1  0  0  0  0
 12 33  1  0  0  0  0
 13 34  1  0  0  0  0
 13 35  1  0  0  0  0
 14 36  1  0  0  0  0
 17 37  1  0  0  0  0
 19 38  1  0  0  0  0
 21 39  1  0  0  0  0
 22 40  1  0  0  0  0
M  END
> <Chemgauss4>
-12.656992

$$$$
