stable:False satoms:8 tatoms:24 sratio:0.3333333333333333
  -OEChem-08062412523D

 40 42  0     1  0  0  0  0  0999 V2000
    6.3660   -5.0135   26.3262 C   0  0  0  0  0  0  0  0  0  0  0  0
    8.0262   -4.4171   26.1012 S   0  0  0  0  0  0  0  0  0  0  0  0
    8.8737   -5.5635   26.0058 O   0  0  0  0  0  0  0  0  0  0  0  0
    8.3465   -3.5911   27.1955 O   0  0  0  0  0  0  0  0  0  0  0  0
    7.9991   -3.5637   24.6833 N   0  0  0  0  0  0  0  0  0  0  0  0
    8.8028   -2.9254   24.2688 C   0  0  0  0  0  0  0  0  0  0  0  0
    9.3633   -1.9257   23.6897 C   0  0  0  0  0  0  0  0  0  0  0  0
   10.3136   -1.0668   23.5280 C   0  0  1  0  0  0  0  0  0  0  0  0
   10.9447   -0.0153   24.6397 C   0  0  0  0  0  0  0  0  0  0  0  0
   11.9404    0.3409   24.6808 C   0  0  0  0  0  0  0  0  0  0  0  0
   13.1333   -0.0286   23.9539 C   0  0  0  0  0  0  0  0  0  0  0  0
   12.7445   -1.1079   23.0397 C   0  0  0  0  0  0  0  0  0  0  0  0
   11.8754   -1.5075   22.8472 C   0  0  0  0  0  0  0  0  0  0  0  0
    9.6493   -0.6116   22.6806 C   0  0  3  0  0  0  0  0  0  0  0  0
    9.0929    0.1285   21.6305 C   0  0  0  0  0  0  0  0  0  0  0  0
    9.6207    1.1075   21.3266 O   0  0  0  0  0  0  0  0  0  0  0  0
    8.0397   -0.5049   21.2298 N   0  0  0  0  0  0  0  0  0  0  0  0
    7.3688   -0.0073   20.3019 C   0  0  0  0  0  0  0  0  0  0  0  0
    7.4871    0.1545   19.0377 C   0  0  0  0  0  0  0  0  0  0  0  0
    7.0806    0.4774   17.8533 N   0  0  0  0  0  0  0  0  0  0  0  0
    6.0173    0.9490   18.2970 C   0  0  0  0  0  0  0  0  0  0  0  0
    5.4855    1.0420   19.3847 C   0  0  0  0  0  0  0  0  0  0  0  0
    5.9032    0.6127   20.5686 C   0  0  0  0  0  0  0  0  0  0  0  0
    5.2474    0.6616   22.0029 Cl  0  0  0  0  0  0  0  0  0  0  0  0
    6.3079   -5.5952   27.2579 H   0  0  0  0  0  0  0  0  0  0  0  0
    5.6745   -4.1599   26.3833 H   0  0  0  0  0  0  0  0  0  0  0  0
    6.0883   -5.6541   25.4762 H   0  0  0  0  0  0  0  0  0  0  0  0
    7.2071   -2.9585   24.7636 H   0  0  0  0  0  0  0  0  0  0  0  0
    9.6687   -3.5289   24.4977 H   0  0  0  0  0  0  0  0  0  0  0  0
   10.2703    0.3446   25.4026 H   0  0  0  0  0  0  0  0  0  0  0  0
   12.0939    1.1298   25.4023 H   0  0  0  0  0  0  0  0  0  0  0  0
   14.1168    0.4043   24.0623 H   0  0  0  0  0  0  0  0  0  0  0  0
   13.5643   -1.5355   22.4817 H   0  0  0  0  0  0  0  0  0  0  0  0
   11.7493   -1.3930   21.7604 H   0  0  0  0  0  0  0  0  0  0  0  0
   11.9968   -2.5730   23.0920 H   0  0  0  0  0  0  0  0  0  0  0  0
    9.1693    0.0569   23.4105 H   0  0  0  0  0  0  0  0  0  0  0  0
    7.7696   -1.3704   21.6517 H   0  0  0  0  0  0  0  0  0  0  0  0
    8.5062   -0.1544   18.8579 H   0  0  0  0  0  0  0  0  0  0  0  0
    5.4142    1.3870   17.5154 H   0  0  0  0  0  0  0  0  0  0  0  0
    4.5319    1.5490   19.3891 H   0  0  0  0  0  0  0  0  0  0  0  0
 20 21  2  0  0  0  0
 19 20  1  0  0  0  0
 21 22  1  0  0  0  0
 18 19  2  0  0  0  0
 22 23  2  0  0  0  0
 18 23  1  0  0  0  0
 17 18  1  0  0  0  0
 23 24  1  0  0  0  0
 15 16  2  0  0  0  0
 15 17  1  0  0  0  0
 14 15  1  0  0  0  0
  8 14  1  0  0  0  0
  7 14  1  0  0  0  0
 12 13  1  0  0  0  0
  8 13  1  0  0  0  0
 11 12  2  0  0  0  0
  7  8  1  0  0  0  0
  8  9  1  0  0  0  0
 10 11  1  0  0  0  0
  6  7  2  3  0  0  0
  5  6  1  0  0  0  0
  9 10  2  0  0  0  0
  2  5  1  0  0  0  0
  2  3  2  0  0  0  0
  1  2  1  0  0  0  0
  2  4  2  0  0  0  0
  1 25  1  0  0  0  0
  1 26  1  0  0  0  0
  1 27  1  0  0  0  0
  5 28  1  0  0  0  0
  6 29  1  0  0  0  0
  9 30  1  0  0  0  0
 10 31  1  0  0  0  0
 11 32  1  0  0  0  0
 12 33  1  0  0  0  0
 13 34  1  0  0  0  0
 13 35  1  0  0  0  0
 14 36  1  0  0  0  0
 17 37  1  0  0  0  0
 19 38  1  0  0  0  0
 21 39  1  0  0  0  0
 22 40  1  0  0  0  0
M  END
> <Chemgauss4>
-12.961082

$$$$
