stable:False satoms:11 tatoms:24 sratio:0.4583333333333333
  -OEChem-07092417483D

 24 25  0     1  0  0  0  0  0999 V2000
    6.5666   -4.8452   26.4608 C   0  0  0  0  0  0  0  0  0  0  0  0
    8.2435   -4.2898   26.0874 S   0  0  0  0  0  0  0  0  0  0  0  0
    9.0740   -5.4667   26.0457 O   0  0  0  0  0  0  0  0  0  0  0  0
    8.6354   -3.4255   27.1427 O   0  0  0  0  0  0  0  0  0  0  0  0
    8.0952   -3.5559   24.6873 N   0  0  0  0  0  0  0  0  0  0  0  0
    8.9960   -2.9272   24.1482 C   0  0  0  0  0  0  0  0  0  0  0  0
    9.4278   -1.9566   23.4900 C   0  0  0  0  0  0  0  0  0  0  0  0
   10.3579   -1.1745   23.2004 C   0  0  1  0  0  0  0  0  0  0  0  0
   11.0796    0.0315   24.3455 C   0  0  0  0  0  0  0  0  0  0  0  0
   12.0267    0.3186   24.2801 C   0  0  0  0  0  0  0  0  0  0  0  0
   13.1980   -0.2013   23.4352 C   0  0  0  0  0  0  0  0  0  0  0  0
   12.7417   -1.2619   22.6851 C   0  0  0  0  0  0  0  0  0  0  0  0
   11.7631   -1.7323   22.5763 C   0  0  0  0  0  0  0  0  0  0  0  0
    9.7186   -0.6076   22.3803 C   0  0  1  0  0  0  0  0  0  0  0  0
    9.0207    0.0457   21.4099 C   0  0  0  0  0  0  0  0  0  0  0  0
    9.5110    1.0035   21.0234 O   0  0  0  0  0  0  0  0  0  0  0  0
    7.9130   -0.5654   21.0804 N   0  0  0  0  0  0  0  0  0  0  0  0
    7.2074   -0.1243   20.1350 C   0  0  0  0  0  0  0  0  0  0  0  0
    7.2260   -0.0265   18.8497 C   0  0  0  0  0  0  0  0  0  0  0  0
    6.7378    0.3170   17.7919 N   0  0  0  0  0  0  0  0  0  0  0  0
    5.6528    0.9018   18.1858 C   0  0  0  0  0  0  0  0  0  0  0  0
    5.2542    0.9969   19.4476 C   0  0  0  0  0  0  0  0  0  0  0  0
    5.7752    0.5884   20.5916 C   0  0  0  0  0  0  0  0  0  0  0  0
    5.3621    0.6671   21.8163 C   0  0  0  0  0  0  0  0  0  0  0  0
 20 21  2  0  0  0  0
 19 20  1  0  0  0  0
 21 22  1  0  0  0  0
 18 19  2  0  0  0  0
 22 23  2  0  0  0  0
 18 23  1  0  0  0  0
 17 18  1  0  0  0  0
 23 24  1  0  0  0  0
 15 16  2  0  0  0  0
 15 17  1  0  0  0  0
 14 15  1  0  0  0  0
  8 14  1  0  0  0  0
  7 14  1  0  0  0  0
 12 13  2  0  0  0  0
  8 13  1  0  0  0  0
 11 12  1  0  0  0  0
  7  8  1  0  0  0  0
 10 11  1  0  0  0  0
  6  7  2  3  0  0  0
  5  6  1  0  0  0  0
  9 10  2  0  0  0  0
  2  5  1  0  0  0  0
  2  3  2  0  0  0  0
  1  2  1  0  0  0  0
  2  4  2  0  0  0  0
M  END
> <Shapegauss>
-287.070953

$$$$
