MODEL 1
REMARK VINA RESULT:    -6.637      0.000      0.000
REMARK INTER + INTRA:         -10.930
REMARK INTER:                  -9.740
REMARK INTRA:                  -1.190
REMARK UNBOUND:                -1.190
REMARK  8 active torsions:
REMARK  status: ('A' for Active; 'I' for Inactive)
REMARK    1  A    between atoms: S_2  and  N_5 
REMARK    2  A    between atoms: N_5  and  C_7 
REMARK    3  A    between atoms: C_9  and  C_14 
REMARK    4  A    between atoms: C_11  and  C_12 
REMARK    5  A    between atoms: C_12  and  C_13 
REMARK    6  A    between atoms: C_13  and  C_14 
REMARK    7  A    between atoms: C_15  and  C_16 
REMARK       I    between atoms: C_16  and  N_18 
REMARK    8  A    between atoms: N_18  and  C_20 
ROOT
HETATM    1  C   UNL     1       7.822  -3.824  23.771  1.00  0.00     0.108 C 
HETATM    2  C   UNL     1       8.266  -2.737  23.345  1.00  0.00    -0.017 A 
HETATM    3  C   UNL     1       9.081  -1.794  23.429  1.00  0.00     0.082 A 
HETATM    4  C   UNL     1       8.663  -1.254  22.461  1.00  0.00     0.031 A 
ENDROOT
BRANCH   4   5
HETATM    5  C   UNL     1       8.225  -0.623  21.337  1.00  0.00     0.253 C 
HETATM    6  O   UNL     1       9.043  -0.129  20.708  1.00  0.00    -0.268 OA
HETATM    7  N   UNL     1       6.931  -0.719  21.170  1.00  0.00    -0.321 N 
ATOM      8  HN  UNL     1       6.357  -1.167  21.883  1.00  0.00     0.169 HD
BRANCH   7   9
HETATM    9  C   UNL     1       6.394  -0.259  20.128  1.00  0.00     0.060 A 
HETATM   10  C   UNL     1       6.119  -0.613  18.919  1.00  0.00     0.117 A 
HETATM   11  N   UNL     1       5.661  -0.398  17.815  1.00  0.00    -0.373 N 
HETATM   12  C   UNL     1       5.279   0.834  17.930  1.00  0.00     0.088 A 
ATOM     13  HN  UNL     1       5.594  -1.022  17.011  1.00  0.00     0.164 HD
HETATM   14  C   UNL     1       5.369   1.559  19.038  1.00  0.00     0.030 A 
HETATM   15  C   UNL     1       5.838   1.304  20.247  1.00  0.00    -0.016 A 
HETATM   16  C   UNL     1       5.898   2.015  21.327  1.00  0.00     0.026 C 
ENDBRANCH   7   9
ENDBRANCH   4   5
BRANCH   3  17
HETATM   17  C   UNL     1      10.691  -2.059  23.310  1.00  0.00    -0.016 C 
BRANCH  17  18
HETATM   18  C   UNL     1      11.449  -1.304  23.098  1.00  0.00    -0.026 C 
BRANCH  18  19
HETATM   19  C   UNL     1      12.391  -0.671  23.878  1.00  0.00     0.053 C 
BRANCH  19  20
HETATM   20  C   UNL     1      11.766   0.621  24.421  1.00  0.00    -0.033 C 
HETATM   21  C   UNL     1      11.575   1.495  23.992  1.00  0.00     0.007 C 
ENDBRANCH  19  20
ENDBRANCH  18  19
ENDBRANCH  17  18
ENDBRANCH   3  17
BRANCH   1  22
HETATM   22  N   UNL     1       6.922  -4.637  23.937  1.00  0.00    -0.295 N 
ATOM     23  HN  UNL     1       6.815  -5.053  24.862  1.00  0.00     0.177 HD
BRANCH  22  24
HETATM   24  S   UNL     1       5.911  -5.082  22.797  1.00  0.00     0.226 S 
HETATM   25  C   UNL     1       6.959  -5.941  21.604  1.00  0.00     0.186 C 
HETATM   26  O   UNL     1       4.915  -6.028  23.234  1.00  0.00    -0.206 OA
HETATM   27  O   UNL     1       5.314  -3.993  22.110  1.00  0.00    -0.206 OA
ENDBRANCH  22  24
ENDBRANCH   1  22
TORSDOF 8
ENDMDL
MODEL 2
REMARK VINA RESULT:    -6.565      2.710      6.176
REMARK INTER + INTRA:         -10.825
REMARK INTER:                  -9.238
REMARK INTRA:                  -1.587
REMARK UNBOUND:                -1.190
REMARK  8 active torsions:
REMARK  status: ('A' for Active; 'I' for Inactive)
REMARK    1  A    between atoms: S_2  and  N_5 
REMARK    2  A    between atoms: N_5  and  C_7 
REMARK    3  A    between atoms: C_9  and  C_14 
REMARK    4  A    between atoms: C_11  and  C_12 
REMARK    5  A    between atoms: C_12  and  C_13 
REMARK    6  A    between atoms: C_13  and  C_14 
REMARK    7  A    between atoms: C_15  and  C_16 
REMARK       I    between atoms: C_16  and  N_18 
REMARK    8  A    between atoms: N_18  and  C_20 
ROOT
HETATM    1  C   UNL     1       8.192   0.208  21.408  1.00  0.00     0.108 C 
HETATM    2  C   UNL     1       8.690  -0.836  21.881  1.00  0.00    -0.017 A 
HETATM    3  C   UNL     1       9.673  -1.592  22.034  1.00  0.00     0.082 A 
HETATM    4  C   UNL     1       9.074  -2.345  22.724  1.00  0.00     0.031 A 
ENDROOT
BRANCH   4   5
HETATM    5  C   UNL     1       8.421  -3.215  23.545  1.00  0.00     0.253 C 
HETATM    6  O   UNL     1       7.742  -3.966  23.013  1.00  0.00    -0.268 OA
HETATM    7  N   UNL     1       8.716  -3.043  24.807  1.00  0.00    -0.321 N 
ATOM      8  HN  UNL     1       9.317  -2.270  25.089  1.00  0.00     0.169 HD
BRANCH   7   9
HETATM    9  C   UNL     1       8.256  -3.831  25.675  1.00  0.00     0.060 A 
HETATM   10  C   UNL     1       8.494  -4.994  26.179  1.00  0.00     0.117 A 
HETATM   11  N   UNL     1       8.242  -5.906  26.940  1.00  0.00    -0.373 N 
HETATM   12  C   UNL     1       7.165  -5.474  27.513  1.00  0.00     0.088 A 
ATOM     13  HN  UNL     1       8.747  -6.780  27.090  1.00  0.00     0.164 HD
HETATM   14  C   UNL     1       6.599  -4.296  27.282  1.00  0.00     0.030 A 
HETATM   15  C   UNL     1       6.901  -3.293  26.476  1.00  0.00    -0.016 A 
HETATM   16  C   UNL     1       6.353  -2.137  26.278  1.00  0.00     0.026 C 
ENDBRANCH   7   9
ENDBRANCH   4   5
BRANCH   3  17
HETATM   17  C   UNL     1      11.033  -1.066  22.772  1.00  0.00    -0.016 C 
BRANCH  17  18
HETATM   18  C   UNL     1      11.206  -0.058  23.153  1.00  0.00    -0.026 C 
BRANCH  18  19
HETATM   19  C   UNL     1      11.385   0.452  24.419  1.00  0.00     0.053 C 
BRANCH  19  20
HETATM   20  C   UNL     1      10.094   0.210  25.214  1.00  0.00    -0.033 C 
HETATM   21  C   UNL     1       9.236   0.706  25.249  1.00  0.00     0.007 C 
ENDBRANCH  19  20
ENDBRANCH  18  19
ENDBRANCH  17  18
ENDBRANCH   3  17
BRANCH   1  22
HETATM   22  N   UNL     1       7.250   0.863  20.982  1.00  0.00    -0.295 N 
ATOM     23  HN  UNL     1       6.871   1.600  21.575  1.00  0.00     0.177 HD
BRANCH  22  24
HETATM   24  S   UNL     1       6.584   0.632  19.560  1.00  0.00     0.226 S 
HETATM   25  C   UNL     1       5.759  -0.965  19.726  1.00  0.00     0.186 C 
HETATM   26  O   UNL     1       5.565   1.596  19.227  1.00  0.00    -0.206 OA
HETATM   27  O   UNL     1       7.526   0.500  18.506  1.00  0.00    -0.206 OA
ENDBRANCH  22  24
ENDBRANCH   1  22
TORSDOF 8
ENDMDL
MODEL 3
REMARK VINA RESULT:    -6.364      2.391      5.722
REMARK INTER + INTRA:         -10.530
REMARK INTER:                  -9.405
REMARK INTRA:                  -1.126
REMARK UNBOUND:                -1.190
REMARK  8 active torsions:
REMARK  status: ('A' for Active; 'I' for Inactive)
REMARK    1  A    between atoms: S_2  and  N_5 
REMARK    2  A    between atoms: N_5  and  C_7 
REMARK    3  A    between atoms: C_9  and  C_14 
REMARK    4  A    between atoms: C_11  and  C_12 
REMARK    5  A    between atoms: C_12  and  C_13 
REMARK    6  A    between atoms: C_13  and  C_14 
REMARK    7  A    between atoms: C_15  and  C_16 
REMARK       I    between atoms: C_16  and  N_18 
REMARK    8  A    between atoms: N_18  and  C_20 
ROOT
HETATM    1  C   UNL     1       9.311  -0.420  21.152  1.00  0.00     0.108 C 
HETATM    2  C   UNL     1       9.560  -1.229  22.072  1.00  0.00    -0.017 A 
HETATM    3  C   UNL     1      10.383  -1.788  22.827  1.00  0.00     0.082 A 
HETATM    4  C   UNL     1       9.546  -2.396  23.404  1.00  0.00     0.031 A 
ENDROOT
BRANCH   4   5
HETATM    5  C   UNL     1       8.606  -3.087  24.106  1.00  0.00     0.253 C 
HETATM    6  O   UNL     1       8.355  -2.656  25.135  1.00  0.00    -0.268 OA
HETATM    7  N   UNL     1       8.140  -4.121  23.454  1.00  0.00    -0.321 N 
ATOM      8  HN  UNL     1       8.537  -4.374  22.549  1.00  0.00     0.169 HD
BRANCH   7   9
HETATM    9  C   UNL     1       7.202  -4.804  23.942  1.00  0.00     0.060 A 
HETATM   10  C   UNL     1       6.719  -5.143  25.088  1.00  0.00     0.117 A 
HETATM   11  N   UNL     1       5.914  -5.730  25.783  1.00  0.00    -0.373 N 
HETATM   12  C   UNL     1       5.199  -6.338  24.892  1.00  0.00     0.088 A 
ATOM     13  HN  UNL     1       5.825  -5.741  26.799  1.00  0.00     0.164 HD
HETATM   14  C   UNL     1       5.365  -6.231  23.580  1.00  0.00     0.030 A 
HETATM   15  C   UNL     1       6.222  -5.560  22.830  1.00  0.00    -0.016 A 
HETATM   16  C   UNL     1       6.357  -5.446  21.548  1.00  0.00     0.026 C 
ENDBRANCH   7   9
ENDBRANCH   4   5
BRANCH   3  17
HETATM   17  C   UNL     1      11.303  -0.918  23.862  1.00  0.00    -0.016 C 
BRANCH  17  18
HETATM   18  C   UNL     1      10.940  -0.156  24.554  1.00  0.00    -0.026 C 
BRANCH  18  19
HETATM   19  C   UNL     1      10.939   1.220  24.521  1.00  0.00     0.053 C 
BRANCH  19  20
HETATM   20  C   UNL     1       9.491   1.687  24.317  1.00  0.00    -0.033 C 
HETATM   21  C   UNL     1       8.766   1.898  24.961  1.00  0.00     0.007 C 
ENDBRANCH  19  20
ENDBRANCH  18  19
ENDBRANCH  17  18
ENDBRANCH   3  17
BRANCH   1  22
HETATM   22  N   UNL     1       8.640  -0.026  20.208  1.00  0.00    -0.295 N 
ATOM     23  HN  UNL     1       9.118   0.175  19.330  1.00  0.00     0.177 HD
BRANCH  22  24
HETATM   24  S   UNL     1       7.068   0.192  20.269  1.00  0.00     0.226 S 
HETATM   25  C   UNL     1       6.625   0.607  18.569  1.00  0.00     0.186 C 
HETATM   26  O   UNL     1       6.326  -0.994  20.617  1.00  0.00    -0.206 OA
HETATM   27  O   UNL     1       6.679   1.293  21.076  1.00  0.00    -0.206 OA
ENDBRANCH  22  24
ENDBRANCH   1  22
TORSDOF 8
ENDMDL
MODEL 4
REMARK VINA RESULT:    -6.166      2.574      6.081
REMARK INTER + INTRA:         -10.239
REMARK INTER:                  -8.971
REMARK INTRA:                  -1.268
REMARK UNBOUND:                -1.190
REMARK  8 active torsions:
REMARK  status: ('A' for Active; 'I' for Inactive)
REMARK    1  A    between atoms: S_2  and  N_5 
REMARK    2  A    between atoms: N_5  and  C_7 
REMARK    3  A    between atoms: C_9  and  C_14 
REMARK    4  A    between atoms: C_11  and  C_12 
REMARK    5  A    between atoms: C_12  and  C_13 
REMARK    6  A    between atoms: C_13  and  C_14 
REMARK    7  A    between atoms: C_15  and  C_16 
REMARK       I    between atoms: C_16  and  N_18 
REMARK    8  A    between atoms: N_18  and  C_20 
ROOT
HETATM    1  C   UNL     1       8.987  -0.425  21.278  1.00  0.00     0.108 C 
HETATM    2  C   UNL     1       9.077  -1.290  22.174  1.00  0.00    -0.017 A 
HETATM    3  C   UNL     1       9.687  -1.778  23.149  1.00  0.00     0.082 A 
HETATM    4  C   UNL     1       8.868  -2.613  23.333  1.00  0.00     0.031 A 
ENDROOT
BRANCH   4   5
HETATM    5  C   UNL     1       7.930  -3.568  23.590  1.00  0.00     0.253 C 
HETATM    6  O   UNL     1       7.870  -4.408  22.817  1.00  0.00    -0.268 OA
HETATM    7  N   UNL     1       7.277  -3.354  24.702  1.00  0.00    -0.321 N 
ATOM      8  HN  UNL     1       7.446  -2.502  25.237  1.00  0.00     0.169 HD
BRANCH   7   9
HETATM    9  C   UNL     1       6.440  -4.199  25.114  1.00  0.00     0.060 A 
HETATM   10  C   UNL     1       5.209  -4.538  24.937  1.00  0.00     0.117 A 
HETATM   11  N   UNL     1       4.242  -5.233  25.174  1.00  0.00    -0.373 N 
HETATM   12  C   UNL     1       4.703  -6.010  26.101  1.00  0.00     0.088 A 
ATOM     13  HN  UNL     1       3.312  -5.211  24.754  1.00  0.00     0.164 HD
HETATM   14  C   UNL     1       5.949  -5.993  26.558  1.00  0.00     0.030 A 
HETATM   15  C   UNL     1       7.007  -5.255  26.267  1.00  0.00    -0.016 A 
HETATM   16  C   UNL     1       8.224  -5.265  26.706  1.00  0.00     0.026 C 
ENDBRANCH   7   9
ENDBRANCH   4   5
BRANCH   3  17
HETATM   17  C   UNL     1       9.953  -0.900  24.502  1.00  0.00    -0.016 C 
BRANCH  17  18
HETATM   18  C   UNL     1      10.904  -0.456  24.800  1.00  0.00    -0.026 C 
BRANCH  18  19
HETATM   19  C   UNL     1      11.734   0.472  24.212  1.00  0.00     0.053 C 
BRANCH  19  20
HETATM   20  C   UNL     1      10.919   1.750  23.970  1.00  0.00    -0.033 C 
HETATM   21  C   UNL     1      11.185   2.659  23.675  1.00  0.00     0.007 C 
ENDBRANCH  19  20
ENDBRANCH  18  19
ENDBRANCH  17  18
ENDBRANCH   3  17
BRANCH   1  22
HETATM   22  N   UNL     1       8.619  -0.041  20.176  1.00  0.00    -0.295 N 
ATOM     23  HN  UNL     1       9.326   0.088  19.452  1.00  0.00     0.177 HD
BRANCH  22  24
HETATM   24  S   UNL     1       7.107   0.271  19.806  1.00  0.00     0.226 S 
HETATM   25  C   UNL     1       6.613   1.510  21.021  1.00  0.00     0.186 C 
HETATM   26  O   UNL     1       6.933   0.868  18.505  1.00  0.00    -0.206 OA
HETATM   27  O   UNL     1       6.240  -0.841  19.977  1.00  0.00    -0.206 OA
ENDBRANCH  22  24
ENDBRANCH   1  22
TORSDOF 8
ENDMDL
MODEL 5
REMARK VINA RESULT:    -5.988     23.853     27.375
REMARK INTER + INTRA:          -9.977
REMARK INTER:                  -8.504
REMARK INTRA:                  -1.474
REMARK UNBOUND:                -1.190
REMARK  8 active torsions:
REMARK  status: ('A' for Active; 'I' for Inactive)
REMARK    1  A    between atoms: S_2  and  N_5 
REMARK    2  A    between atoms: N_5  and  C_7 
REMARK    3  A    between atoms: C_9  and  C_14 
REMARK    4  A    between atoms: C_11  and  C_12 
REMARK    5  A    between atoms: C_12  and  C_13 
REMARK    6  A    between atoms: C_13  and  C_14 
REMARK    7  A    between atoms: C_15  and  C_16 
REMARK       I    between atoms: C_16  and  N_18 
REMARK    8  A    between atoms: N_18  and  C_20 
ROOT
HETATM    1  C   UNL     1       8.305  14.885   1.734  1.00  0.00     0.108 C 
HETATM    2  C   UNL     1       8.714  16.065   1.782  1.00  0.00    -0.017 A 
HETATM    3  C   UNL     1       8.918  17.162   1.222  1.00  0.00     0.082 A 
HETATM    4  C   UNL     1       9.323  17.671   2.211  1.00  0.00     0.031 A 
ENDROOT
BRANCH   4   5
HETATM    5  C   UNL     1       9.766  18.295   3.339  1.00  0.00     0.253 C 
HETATM    6  O   UNL     1       8.999  18.372   4.183  1.00  0.00    -0.268 OA
HETATM    7  N   UNL     1      11.014  18.677   3.253  1.00  0.00    -0.321 N 
ATOM      8  HN  UNL     1      11.524  18.560   2.378  1.00  0.00     0.169 HD
BRANCH   7   9
HETATM    9  C   UNL     1      11.586  19.189   4.250  1.00  0.00     0.060 A 
HETATM   10  C   UNL     1      12.179  18.835   5.339  1.00  0.00     0.117 A 
HETATM   11  N   UNL     1      12.760  19.086   6.376  1.00  0.00    -0.373 N 
HETATM   12  C   UNL     1      12.742  20.380   6.374  1.00  0.00     0.088 A 
ATOM     13  HN  UNL     1      13.157  18.447   7.065  1.00  0.00     0.164 HD
HETATM   14  C   UNL     1      12.235  21.134   5.407  1.00  0.00     0.030 A 
HETATM   15  C   UNL     1      11.636  20.851   4.263  1.00  0.00    -0.016 A 
HETATM   16  C   UNL     1      11.167  21.599   3.317  1.00  0.00     0.026 C 
ENDBRANCH   7   9
ENDBRANCH   4   5
BRANCH   3  17
HETATM   17  C   UNL     1       7.686  18.021   0.575  1.00  0.00    -0.016 C 
BRANCH  17  18
HETATM   18  C   UNL     1       7.762  19.015   0.132  1.00  0.00    -0.026 C 
BRANCH  18  19
HETATM   19  C   UNL     1       7.088  20.196   0.349  1.00  0.00     0.053 C 
BRANCH  19  20
HETATM   20  C   UNL     1       7.042  20.443   1.863  1.00  0.00    -0.033 C 
HETATM   21  C   UNL     1       7.363  21.198   2.421  1.00  0.00     0.007 C 
ENDBRANCH  19  20
ENDBRANCH  18  19
ENDBRANCH  17  18
ENDBRANCH   3  17
BRANCH   1  22
HETATM   22  N   UNL     1       8.314  13.719   2.104  1.00  0.00    -0.295 N 
ATOM     23  HN  UNL     1       8.105  12.995   1.417  1.00  0.00     0.177 HD
BRANCH  22  24
HETATM   24  S   UNL     1       8.633  13.266   3.592  1.00  0.00     0.226 S 
HETATM   25  C   UNL     1       7.301  14.005   4.561  1.00  0.00     0.186 C 
HETATM   26  O   UNL     1       8.559  11.842   3.799  1.00  0.00    -0.206 OA
HETATM   27  O   UNL     1       9.851  13.793   4.098  1.00  0.00    -0.206 OA
ENDBRANCH  22  24
ENDBRANCH   1  22
TORSDOF 8
ENDMDL
MODEL 6
REMARK VINA RESULT:    -5.967      2.986      4.315
REMARK INTER + INTRA:          -9.947
REMARK INTER:                  -8.970
REMARK INTRA:                  -0.977
REMARK UNBOUND:                -1.190
REMARK  8 active torsions:
REMARK  status: ('A' for Active; 'I' for Inactive)
REMARK    1  A    between atoms: S_2  and  N_5 
REMARK    2  A    between atoms: N_5  and  C_7 
REMARK    3  A    between atoms: C_9  and  C_14 
REMARK    4  A    between atoms: C_11  and  C_12 
REMARK    5  A    between atoms: C_12  and  C_13 
REMARK    6  A    between atoms: C_13  and  C_14 
REMARK    7  A    between atoms: C_15  and  C_16 
REMARK       I    between atoms: C_16  and  N_18 
REMARK    8  A    between atoms: N_18  and  C_20 
ROOT
HETATM    1  C   UNL     1       3.470  -6.214  23.310  1.00  0.00     0.108 C 
HETATM    2  C   UNL     1       4.211  -5.213  23.212  1.00  0.00    -0.017 A 
HETATM    3  C   UNL     1       4.943  -4.353  23.745  1.00  0.00     0.082 A 
HETATM    4  C   UNL     1       5.224  -3.850  22.711  1.00  0.00     0.031 A 
ENDROOT
BRANCH   4   5
HETATM    5  C   UNL     1       5.591  -3.267  21.535  1.00  0.00     0.253 C 
HETATM    6  O   UNL     1       5.685  -3.982  20.648  1.00  0.00    -0.268 OA
HETATM    7  N   UNL     1       5.748  -1.973  21.636  1.00  0.00    -0.321 N 
ATOM      8  HN  UNL     1       5.666  -1.519  22.545  1.00  0.00     0.169 HD
BRANCH   7   9
HETATM    9  C   UNL     1       6.001  -1.286  20.611  1.00  0.00     0.060 A 
HETATM   10  C   UNL     1       5.550  -1.085  19.421  1.00  0.00     0.117 A 
HETATM   11  N   UNL     1       5.591  -0.544  18.334  1.00  0.00    -0.373 N 
HETATM   12  C   UNL     1       6.658   0.180  18.447  1.00  0.00     0.088 A 
ATOM     13  HN  UNL     1       4.954  -0.636  17.543  1.00  0.00     0.164 HD
HETATM   14  C   UNL     1       7.407   0.268  19.538  1.00  0.00     0.030 A 
HETATM   15  C   UNL     1       7.334  -0.298  20.731  1.00  0.00    -0.016 A 
HETATM   16  C   UNL     1       8.060  -0.185  21.796  1.00  0.00     0.026 C 
ENDBRANCH   7   9
ENDBRANCH   4   5
BRANCH   3  17
HETATM   17  C   UNL     1       6.282  -4.786  24.577  1.00  0.00    -0.016 C 
BRANCH  17  18
HETATM   18  C   UNL     1       7.177  -4.176  24.711  1.00  0.00    -0.026 C 
BRANCH  18  19
HETATM   19  C   UNL     1       8.392  -4.134  24.063  1.00  0.00     0.053 C 
BRANCH  19  20
HETATM   20  C   UNL     1       8.996  -2.740  24.282  1.00  0.00    -0.033 C 
HETATM   21  C   UNL     1       8.792  -2.026  24.939  1.00  0.00     0.007 C 
ENDBRANCH  19  20
ENDBRANCH  18  19
ENDBRANCH  17  18
ENDBRANCH   3  17
BRANCH   1  22
HETATM   22  N   UNL     1       2.543  -6.918  22.932  1.00  0.00    -0.295 N 
ATOM     23  HN  UNL     1       2.221  -6.811  21.970  1.00  0.00     0.177 HD
BRANCH  22  24
HETATM   24  S   UNL     1       1.812  -7.988  23.849  1.00  0.00     0.226 S 
HETATM   25  C   UNL     1       0.746  -6.989  24.909  1.00  0.00     0.186 C 
HETATM   26  O   UNL     1       0.953  -8.891  23.125  1.00  0.00    -0.206 OA
HETATM   27  O   UNL     1       2.694  -8.698  24.706  1.00  0.00    -0.206 OA
ENDBRANCH  22  24
ENDBRANCH   1  22
TORSDOF 8
ENDMDL
MODEL 7
REMARK VINA RESULT:    -5.944     22.657     26.095
REMARK INTER + INTRA:          -9.913
REMARK INTER:                  -8.705
REMARK INTRA:                  -1.208
REMARK UNBOUND:                -1.190
REMARK  8 active torsions:
REMARK  status: ('A' for Active; 'I' for Inactive)
REMARK    1  A    between atoms: S_2  and  N_5 
REMARK    2  A    between atoms: N_5  and  C_7 
REMARK    3  A    between atoms: C_9  and  C_14 
REMARK    4  A    between atoms: C_11  and  C_12 
REMARK    5  A    between atoms: C_12  and  C_13 
REMARK    6  A    between atoms: C_13  and  C_14 
REMARK    7  A    between atoms: C_15  and  C_16 
REMARK       I    between atoms: C_16  and  N_18 
REMARK    8  A    between atoms: N_18  and  C_20 
ROOT
HETATM    1  C   UNL     1       7.758  13.957   2.198  1.00  0.00     0.108 C 
HETATM    2  C   UNL     1       8.468  14.975   2.344  1.00  0.00    -0.017 A 
HETATM    3  C   UNL     1       8.834  16.103   1.953  1.00  0.00     0.082 A 
HETATM    4  C   UNL     1       9.561  16.263   2.873  1.00  0.00     0.031 A 
ENDROOT
BRANCH   4   5
HETATM    5  C   UNL     1      10.385  16.491   3.934  1.00  0.00     0.253 C 
HETATM    6  O   UNL     1      11.213  15.716   4.080  1.00  0.00    -0.268 OA
HETATM    7  N   UNL     1      10.086  17.585   4.585  1.00  0.00    -0.321 N 
ATOM      8  HN  UNL     1       9.262  18.125   4.323  1.00  0.00     0.169 HD
BRANCH   7   9
HETATM    9  C   UNL     1      10.815  17.971   5.537  1.00  0.00     0.060 A 
HETATM   10  C   UNL     1      10.971  17.780   6.802  1.00  0.00     0.117 A 
HETATM   11  N   UNL     1      11.529  17.995   7.859  1.00  0.00    -0.373 N 
HETATM   12  C   UNL     1      12.386  18.902   7.519  1.00  0.00     0.088 A 
ATOM     13  HN  UNL     1      11.364  17.572   8.774  1.00  0.00     0.164 HD
HETATM   14  C   UNL     1      12.557  19.365   6.287  1.00  0.00     0.030 A 
HETATM   15  C   UNL     1      11.970  19.098   5.134  1.00  0.00    -0.016 A 
HETATM   16  C   UNL     1      12.163  19.541   3.933  1.00  0.00     0.026 C 
ENDBRANCH   7   9
ENDBRANCH   4   5
BRANCH   3  17
HETATM   17  C   UNL     1       7.767  17.335   1.819  1.00  0.00    -0.016 C 
BRANCH  17  18
HETATM   18  C   UNL     1       7.644  17.984   0.950  1.00  0.00    -0.026 C 
BRANCH  18  19
HETATM   19  C   UNL     1       8.504  18.399  -0.043  1.00  0.00     0.053 C 
BRANCH  19  20
HETATM   20  C   UNL     1       9.190  19.687   0.433  1.00  0.00    -0.033 C 
HETATM   21  C   UNL     1       9.954  19.842   1.046  1.00  0.00     0.007 C 
ENDBRANCH  19  20
ENDBRANCH  18  19
ENDBRANCH  17  18
ENDBRANCH   3  17
BRANCH   1  22
HETATM   22  N   UNL     1       7.534  12.762   2.341  1.00  0.00    -0.295 N 
ATOM     23  HN  UNL     1       7.354  12.205   1.506  1.00  0.00     0.177 HD
BRANCH  22  24
HETATM   24  S   UNL     1       7.507  12.029   3.749  1.00  0.00     0.226 S 
HETATM   25  C   UNL     1       6.412  10.621   3.479  1.00  0.00     0.186 C 
HETATM   26  O   UNL     1       8.783  11.495   4.156  1.00  0.00    -0.206 OA
HETATM   27  O   UNL     1       6.927  12.809   4.784  1.00  0.00    -0.206 OA
ENDBRANCH  22  24
ENDBRANCH   1  22
TORSDOF 8
ENDMDL
MODEL 8
REMARK VINA RESULT:    -5.879      3.019      6.115
REMARK INTER + INTRA:          -9.818
REMARK INTER:                  -8.567
REMARK INTRA:                  -1.251
REMARK UNBOUND:                -1.190
REMARK  8 active torsions:
REMARK  status: ('A' for Active; 'I' for Inactive)
REMARK    1  A    between atoms: S_2  and  N_5 
REMARK    2  A    between atoms: N_5  and  C_7 
REMARK    3  A    between atoms: C_9  and  C_14 
REMARK    4  A    between atoms: C_11  and  C_12 
REMARK    5  A    between atoms: C_12  and  C_13 
REMARK    6  A    between atoms: C_13  and  C_14 
REMARK    7  A    between atoms: C_15  and  C_16 
REMARK       I    between atoms: C_16  and  N_18 
REMARK    8  A    between atoms: N_18  and  C_20 
ROOT
HETATM    1  C   UNL     1       7.623   1.431  21.303  1.00  0.00     0.108 C 
HETATM    2  C   UNL     1       8.597   0.901  21.878  1.00  0.00    -0.017 A 
HETATM    3  C   UNL     1       9.776   0.962  22.287  1.00  0.00     0.082 A 
HETATM    4  C   UNL     1       9.738  -0.119  22.769  1.00  0.00     0.031 A 
ENDROOT
BRANCH   4   5
HETATM    5  C   UNL     1       9.719  -1.347  23.359  1.00  0.00     0.253 C 
HETATM    6  O   UNL     1      10.695  -1.937  23.280  1.00  0.00    -0.268 OA
HETATM    7  N   UNL     1       8.577  -1.617  23.935  1.00  0.00    -0.321 N 
ATOM      8  HN  UNL     1       7.796  -0.967  23.849  1.00  0.00     0.169 HD
BRANCH   7   9
HETATM    9  C   UNL     1       8.440  -2.680  24.596  1.00  0.00     0.060 A 
HETATM   10  C   UNL     1       8.646  -3.138  25.783  1.00  0.00     0.117 A 
HETATM   11  N   UNL     1       8.617  -4.026  26.611  1.00  0.00    -0.373 N 
HETATM   12  C   UNL     1       8.163  -5.016  25.912  1.00  0.00     0.088 A 
ATOM     13  HN  UNL     1       8.880  -3.999  27.597  1.00  0.00     0.164 HD
HETATM   14  C   UNL     1       7.806  -4.947  24.636  1.00  0.00     0.030 A 
HETATM   15  C   UNL     1       7.808  -3.965  23.751  1.00  0.00    -0.016 A 
HETATM   16  C   UNL     1       7.434  -3.906  22.513  1.00  0.00     0.026 C 
ENDBRANCH   7   9
ENDBRANCH   4   5
BRANCH   3  17
HETATM   17  C   UNL     1      10.229   2.085  23.385  1.00  0.00    -0.016 C 
BRANCH  17  18
HETATM   18  C   UNL     1       9.754   2.263  24.352  1.00  0.00    -0.026 C 
BRANCH  18  19
HETATM   19  C   UNL     1       8.821   3.177  24.788  1.00  0.00     0.053 C 
BRANCH  19  20
HETATM   20  C   UNL     1       8.643   4.233  23.688  1.00  0.00    -0.033 C 
HETATM   21  C   UNL     1       8.159   5.098  23.674  1.00  0.00     0.007 C 
ENDBRANCH  19  20
ENDBRANCH  18  19
ENDBRANCH  17  18
ENDBRANCH   3  17
BRANCH   1  22
HETATM   22  N   UNL     1       6.594   1.378  20.642  1.00  0.00    -0.295 N 
ATOM     23  HN  UNL     1       5.766   1.852  21.004  1.00  0.00     0.177 HD
BRANCH  22  24
HETATM   24  S   UNL     1       6.472   0.616  19.255  1.00  0.00     0.226 S 
HETATM   25  C   UNL     1       5.678  -0.945  19.691  1.00  0.00     0.186 C 
HETATM   26  O   UNL     1       5.613   1.270  18.301  1.00  0.00    -0.206 OA
HETATM   27  O   UNL     1       7.727   0.291  18.674  1.00  0.00    -0.206 OA
ENDBRANCH  22  24
ENDBRANCH   1  22
TORSDOF 8
ENDMDL
MODEL 9
REMARK VINA RESULT:    -5.872      2.579      5.186
REMARK INTER + INTRA:          -9.808
REMARK INTER:                  -8.878
REMARK INTRA:                  -0.929
REMARK UNBOUND:                -1.190
REMARK  8 active torsions:
REMARK  status: ('A' for Active; 'I' for Inactive)
REMARK    1  A    between atoms: S_2  and  N_5 
REMARK    2  A    between atoms: N_5  and  C_7 
REMARK    3  A    between atoms: C_9  and  C_14 
REMARK    4  A    between atoms: C_11  and  C_12 
REMARK    5  A    between atoms: C_12  and  C_13 
REMARK    6  A    between atoms: C_13  and  C_14 
REMARK    7  A    between atoms: C_15  and  C_16 
REMARK       I    between atoms: C_16  and  N_18 
REMARK    8  A    between atoms: N_18  and  C_20 
ROOT
HETATM    1  C   UNL     1       7.445   1.005  21.263  1.00  0.00     0.108 C 
HETATM    2  C   UNL     1       8.169   0.085  21.700  1.00  0.00    -0.017 A 
HETATM    3  C   UNL     1       9.292  -0.333  22.052  1.00  0.00     0.082 A 
HETATM    4  C   UNL     1       8.875  -1.396  22.366  1.00  0.00     0.031 A 
ENDROOT
BRANCH   4   5
HETATM    5  C   UNL     1       8.423  -2.618  22.764  1.00  0.00     0.253 C 
HETATM    6  O   UNL     1       9.049  -3.125  23.576  1.00  0.00    -0.268 OA
HETATM    7  N   UNL     1       7.327  -2.981  22.150  1.00  0.00    -0.321 N 
ATOM      8  HN  UNL     1       6.944  -2.399  21.405  1.00  0.00     0.169 HD
BRANCH   7   9
HETATM    9  C   UNL     1       6.744  -4.048  22.477  1.00  0.00     0.060 A 
HETATM   10  C   UNL     1       6.742  -5.303  22.183  1.00  0.00     0.117 A 
HETATM   11  N   UNL     1       6.330  -6.437  22.320  1.00  0.00    -0.373 N 
HETATM   12  C   UNL     1       5.400  -6.269  23.204  1.00  0.00     0.088 A 
ATOM     13  HN  UNL     1       6.636  -7.295  21.860  1.00  0.00     0.164 HD
HETATM   14  C   UNL     1       5.099  -5.113  23.781  1.00  0.00     0.030 A 
HETATM   15  C   UNL     1       5.578  -3.888  23.652  1.00  0.00    -0.016 A 
HETATM   16  C   UNL     1       5.289  -2.772  24.240  1.00  0.00     0.026 C 
ENDBRANCH   7   9
ENDBRANCH   4   5
BRANCH   3  17
HETATM   17  C   UNL     1      10.105   0.372  23.282  1.00  0.00    -0.016 C 
BRANCH  17  18
HETATM   18  C   UNL     1      10.961  -0.054  23.811  1.00  0.00    -0.026 C 
BRANCH  18  19
HETATM   19  C   UNL     1      12.211   0.432  24.121  1.00  0.00     0.053 C 
BRANCH  19  20
HETATM   20  C   UNL     1      13.209  -0.731  24.019  1.00  0.00    -0.033 C 
HETATM   21  C   UNL     1      13.320  -1.449  23.345  1.00  0.00     0.007 C 
ENDBRANCH  19  20
ENDBRANCH  18  19
ENDBRANCH  17  18
ENDBRANCH   3  17
BRANCH   1  22
HETATM   22  N   UNL     1       6.467   1.419  20.655  1.00  0.00    -0.295 N 
ATOM     23  HN  UNL     1       6.172   2.381  20.819  1.00  0.00     0.177 HD
BRANCH  22  24
HETATM   24  S   UNL     1       5.629   0.546  19.627  1.00  0.00     0.226 S 
HETATM   25  C   UNL     1       6.457   0.828  18.049  1.00  0.00     0.186 C 
HETATM   26  O   UNL     1       5.685  -0.872  19.881  1.00  0.00    -0.206 OA
HETATM   27  O   UNL     1       4.287   0.984  19.472  1.00  0.00    -0.206 OA
ENDBRANCH  22  24
ENDBRANCH   1  22
TORSDOF 8
ENDMDL
