stable:False satoms:10 tatoms:24 sratio:0.4166666666666667
  -OEChem-07092417493D

 24 26  0     1  0  0  0  0  0999 V2000
    6.5701   -4.8541   26.4761 C   0  0  0  0  0  0  0  0  0  0  0  0
    8.2340   -4.2872   26.1145 S   0  0  0  0  0  0  0  0  0  0  0  0
    9.0631   -5.4751   26.0839 O   0  0  0  0  0  0  0  0  0  0  0  0
    8.6428   -3.3990   27.1539 O   0  0  0  0  0  0  0  0  0  0  0  0
    8.1005   -3.5668   24.6714 N   0  0  0  0  0  0  0  0  0  0  0  0
    8.9816   -2.9495   24.1173 C   0  0  0  0  0  0  0  0  0  0  0  0
    9.4354   -1.9504   23.4786 C   0  0  0  0  0  0  0  0  0  0  0  0
   10.3259   -1.1290   23.2393 C   0  0  1  0  0  0  0  0  0  0  0  0
   11.0729    0.0103   24.3312 C   0  0  0  0  0  0  0  0  0  0  0  0
   12.0309    0.2999   24.2430 C   0  0  0  0  0  0  0  0  0  0  0  0
   13.1741   -0.1564   23.4649 C   0  0  0  0  0  0  0  0  0  0  0  0
   12.7168   -1.2786   22.6437 C   0  0  0  0  0  0  0  0  0  0  0  0
   11.8050   -1.7263   22.5085 C   0  0  0  0  0  0  0  0  0  0  0  0
    9.6783   -0.6010   22.3730 C   0  0  3  0  0  0  0  0  0  0  0  0
    9.0324    0.0380   21.3953 C   0  0  0  0  0  0  0  0  0  0  0  0
    9.5285    0.9972   20.9987 O   0  0  0  0  0  0  0  0  0  0  0  0
    7.9191   -0.5770   21.0673 N   0  0  0  0  0  0  0  0  0  0  0  0
    7.2071   -0.1154   20.1596 C   0  0  0  0  0  0  0  0  0  0  0  0
    7.2472   -0.0408   18.8710 C   0  0  0  0  0  0  0  0  0  0  0  0
    6.7371    0.3206   17.7642 N   0  0  0  0  0  0  0  0  0  0  0  0
    5.6891    0.8643   18.2118 C   0  0  0  0  0  0  0  0  0  0  0  0
    5.2508    0.9832   19.4171 C   0  0  0  0  0  0  0  0  0  0  0  0
    5.8057    0.5850   20.5370 C   0  0  0  0  0  0  0  0  0  0  0  0
    5.3357    0.7181   21.9755 C   0  0  0  0  0  0  0  0  0  0  0  0
 20 21  2  0  0  0  0
 19 20  1  0  0  0  0
 21 22  1  0  0  0  0
 18 19  2  0  0  0  0
 22 23  2  0  0  0  0
 18 23  1  0  0  0  0
 17 18  1  0  0  0  0
 23 24  1  0  0  0  0
 15 16  2  0  0  0  0
 15 17  1  0  0  0  0
 14 15  1  0  0  0  0
  8 14  1  0  0  0  0
  7 14  1  0  0  0  0
 12 13  1  0  0  0  0
  8 13  1  0  0  0  0
 11 12  2  0  0  0  0
  7  8  1  0  0  0  0
  8  9  1  0  0  0  0
 10 11  1  0  0  0  0
  6  7  2  3  0  0  0
  5  6  1  0  0  0  0
  9 10  2  0  0  0  0
  2  5  1  0  0  0  0
  2  3  2  0  0  0  0
  1  2  1  0  0  0  0
  2  4  2  0  0  0  0
M  END
> <Shapegauss>
-286.483734

$$$$
