stable:False satoms:10 tatoms:24 sratio:0.4166666666666667
  -OEChem-08062417223D

 43 45  0     1  0  0  0  0  0999 V2000
   -6.4437   -5.1805  -26.2528 C   0  0  0  0  0  0  0  0  0  0  0  0
   -8.0991   -4.5040  -26.1030 S   0  0  0  0  0  0  0  0  0  0  0  0
   -9.0000   -5.6378  -26.1503 O   0  0  0  0  0  0  0  0  0  0  0  0
   -8.3248   -3.6193  -27.1997 O   0  0  0  0  0  0  0  0  0  0  0  0
   -8.0915   -3.7565  -24.6676 N   0  0  0  0  0  0  0  0  0  0  0  0
   -8.9908   -3.0725  -24.2340 C   0  0  0  0  0  0  0  0  0  0  0  0
   -9.4524   -2.0316  -23.6724 C   0  0  0  0  0  0  0  0  0  0  0  0
  -10.3108   -1.1515  -23.5561 C   0  0  1  0  0  0  0  0  0  0  0  0
  -10.8494    0.0030  -24.7499 C   0  0  0  0  0  0  0  0  0  0  0  0
  -11.7907    0.3528  -24.7822 C   0  0  0  0  0  0  0  0  0  0  0  0
  -13.0446   -0.0128  -24.1382 C   0  0  0  0  0  0  0  0  0  0  0  0
  -12.7600   -1.1395  -23.2480 C   0  0  0  0  0  0  0  0  0  0  0  0
  -11.9009   -1.6385  -22.9967 C   0  0  0  0  0  0  0  0  0  0  0  0
   -9.7378   -0.6421  -22.6283 C   0  0  3  0  0  0  0  0  0  0  0  0
   -9.1726   -0.0190  -21.5921 C   0  0  0  0  0  0  0  0  0  0  0  0
   -9.6500    0.9786  -21.2751 O   0  0  0  0  0  0  0  0  0  0  0  0
   -8.1473   -0.6922  -21.1223 N   0  0  0  0  0  0  0  0  0  0  0  0
   -7.5197   -0.2520  -20.1445 C   0  0  0  0  0  0  0  0  0  0  0  0
   -7.7070   -0.1422  -18.8715 C   0  0  0  0  0  0  0  0  0  0  0  0
   -7.3093    0.2156  -17.7184 N   0  0  0  0  0  0  0  0  0  0  0  0
   -6.1832    0.6826  -18.0472 C   0  0  0  0  0  0  0  0  0  0  0  0
   -5.5989    0.7437  -19.1934 C   0  0  0  0  0  0  0  0  0  0  0  0
   -6.0417    0.3517  -20.3642 C   0  0  0  0  0  0  0  0  0  0  0  0
   -5.3975    0.4190  -21.7384 C   0  0  0  0  0  0  0  0  0  0  0  0
   -6.3504   -5.7145  -27.2099 H   0  0  0  0  0  0  0  0  0  0  0  0
   -5.7088   -4.3628  -26.2161 H   0  0  0  0  0  0  0  0  0  0  0  0
   -6.2567   -5.8789  -25.4237 H   0  0  0  0  0  0  0  0  0  0  0  0
   -7.2879   -3.1615  -24.6817 H   0  0  0  0  0  0  0  0  0  0  0  0
   -9.8729   -3.6643  -24.4295 H   0  0  0  0  0  0  0  0  0  0  0  0
  -10.1410    0.3561  -25.4847 H   0  0  0  0  0  0  0  0  0  0  0  0
  -11.8974    1.1954  -25.4492 H   0  0  0  0  0  0  0  0  0  0  0  0
  -14.0044    0.4588  -24.2890 H   0  0  0  0  0  0  0  0  0  0  0  0
  -13.6387   -1.5254  -22.7528 H   0  0  0  0  0  0  0  0  0  0  0  0
  -11.8527   -1.6232  -21.8979 H   0  0  0  0  0  0  0  0  0  0  0  0
  -12.0397   -2.6732  -23.3433 H   0  0  0  0  0  0  0  0  0  0  0  0
   -9.1753   -0.0016  -23.3236 H   0  0  0  0  0  0  0  0  0  0  0  0
   -7.8735   -1.5541  -21.5491 H   0  0  0  0  0  0  0  0  0  0  0  0
   -8.6874   -0.5627  -18.7032 H   0  0  0  0  0  0  0  0  0  0  0  0
   -5.6145    1.1012  -17.2301 H   0  0  0  0  0  0  0  0  0  0  0  0
   -4.6095    1.1767  -19.1901 H   0  0  0  0  0  0  0  0  0  0  0  0
   -4.8282   -0.5040  -21.9227 H   0  0  0  0  0  0  0  0  0  0  0  0
   -6.1792    0.5267  -22.5048 H   0  0  0  0  0  0  0  0  0  0  0  0
   -4.7187    1.2835  -21.7830 H   0  0  0  0  0  0  0  0  0  0  0  0
 20 21  2  0  0  0  0
 19 20  1  0  0  0  0
 21 22  1  0  0  0  0
 18 19  2  0  0  0  0
 22 23  2  0  0  0  0
 18 23  1  0  0  0  0
 17 18  1  0  0  0  0
 23 24  1  0  0  0  0
 15 16  2  0  0  0  0
 15 17  1  0  0  0  0
 14 15  1  0  0  0  0
  8 14  1  0  0  0  0
  7 14  1  0  0  0  0
 12 13  1  0  0  0  0
  8 13  1  0  0  0  0
 11 12  2  0  0  0  0
  7  8  1  0  0  0  0
  8  9  1  0  0  0  0
 10 11  1  0  0  0  0
  6  7  2  3  0  0  0
  5  6  1  0  0  0  0
  9 10  2  0  0  0  0
  2  5  1  0  0  0  0
  2  3  2  0  0  0  0
  1  2  1  0  0  0  0
  2  4  2  0  0  0  0
  1 25  1  0  0  0  0
  1 26  1  0  0  0  0
  1 27  1  0  0  0  0
  5 28  1  0  0  0  0
  6 29  1  0  0  0  0
  9 30  1  0  0  0  0
 10 31  1  0  0  0  0
 11 32  1  0  0  0  0
 12 33  1  0  0  0  0
 13 34  1  0  0  0  0
 13 35  1  0  0  0  0
 14 36  1  0  0  0  0
 17 37  1  0  0  0  0
 19 38  1  0  0  0  0
 21 39  1  0  0  0  0
 22 40  1  0  0  0  0
 24 41  1  0  0  0  0
 24 42  1  0  0  0  0
 24 43  1  0  0  0  0
M  END
> <Chemgauss4>
-12.697816

$$$$
