stable:False satoms:9 tatoms:24 sratio:0.375
  -OEChem-08062417573D

 47 47  0     1  0  0  0  0  0999 V2000
    5.8749   -5.1852   25.9415 C   0  0  0  0  0  0  0  0  0  0  0  0
    7.6053   -4.6103   25.8082 S   0  0  0  0  0  0  0  0  0  0  0  0
    8.4018   -5.8139   25.8146 O   0  0  0  0  0  0  0  0  0  0  0  0
    7.8621   -3.7829   26.9342 O   0  0  0  0  0  0  0  0  0  0  0  0
    7.6701   -3.8195   24.3961 N   0  0  0  0  0  0  0  0  0  0  0  0
    8.6091   -3.1753   24.0503 C   0  0  0  0  0  0  0  0  0  0  0  0
    9.1327   -2.1744   23.5527 C   0  0  0  0  0  0  0  0  0  0  0  0
   10.0572   -1.2926   23.5797 C   0  0  2  0  0  0  0  0  0  0  0  0
   10.5924   -0.3735   24.6462 C   0  0  0  0  0  0  0  0  0  0  0  0
   11.7921    0.0157   24.7751 C   0  0  0  0  0  0  0  0  0  0  0  0
   12.8325   -0.4351   24.1155 C   0  0  0  0  0  0  0  0  0  0  0  0
   12.5183   -1.5325   23.1308 C   0  0  0  0  0  0  0  0  0  0  0  0
   11.6504   -1.9357   22.8828 C   0  0  0  0  0  0  0  0  0  0  0  0
    9.6027   -0.7200   22.5806 C   0  0  0  0  0  0  0  0  0  0  0  0
    9.1028   -0.0073   21.5657 C   0  0  0  0  0  0  0  0  0  0  0  0
    9.6520    0.9498   21.3027 O   0  0  0  0  0  0  0  0  0  0  0  0
    8.0156   -0.5266   21.0782 N   0  0  0  0  0  0  0  0  0  0  0  0
    7.3968   -0.0092   20.1053 C   0  0  0  0  0  0  0  0  0  0  0  0
    7.5485    0.1539   18.8349 C   0  0  0  0  0  0  0  0  0  0  0  0
    7.2594    0.5045   17.7387 N   0  0  0  0  0  0  0  0  0  0  0  0
    6.0863    1.1174   17.9980 C   0  0  0  0  0  0  0  0  0  0  0  0
    5.5356    1.1735   19.1982 C   0  0  0  0  0  0  0  0  0  0  0  0
    5.9521    0.6641   20.3436 C   0  0  0  0  0  0  0  0  0  0  0  0
    5.2955    0.6644   21.7214 C   0  0  0  0  0  0  0  0  0  0  0  0
    5.7432   -5.7382   26.8832 H   0  0  0  0  0  0  0  0  0  0  0  0
    5.1984   -4.3178   25.9282 H   0  0  0  0  0  0  0  0  0  0  0  0
    5.6415   -5.8452   25.0931 H   0  0  0  0  0  0  0  0  0  0  0  0
    6.8923   -3.1911   24.3979 H   0  0  0  0  0  0  0  0  0  0  0  0
    9.4522   -3.7982   24.3105 H   0  0  0  0  0  0  0  0  0  0  0  0
    8.5264   -1.9297   22.6931 H   0  0  0  0  0  0  0  0  0  0  0  0
   10.9611   -1.8156   23.2343 H   0  0  0  0  0  0  0  0  0  0  0  0
    9.8827   -0.0094   25.3743 H   0  0  0  0  0  0  0  0  0  0  0  0
   11.9756    0.7955   25.4996 H   0  0  0  0  0  0  0  0  0  0  0  0
   13.5593   -0.8242   24.8437 H   0  0  0  0  0  0  0  0  0  0  0  0
   13.2801    0.4045   23.5635 H   0  0  0  0  0  0  0  0  0  0  0  0
   13.3749   -1.9419   22.6160 H   0  0  0  0  0  0  0  0  0  0  0  0
   11.6123   -2.7248   22.1464 H   0  0  0  0  0  0  0  0  0  0  0  0
   10.7403   -1.5873   23.3484 H   0  0  0  0  0  0  0  0  0  0  0  0
    8.8221   -1.4860   22.4630 H   0  0  0  0  0  0  0  0  0  0  0  0
   10.4842   -1.0004   21.9853 H   0  0  0  0  0  0  0  0  0  0  0  0
    7.6561   -1.3653   21.4874 H   0  0  0  0  0  0  0  0  0  0  0  0
    8.5153   -0.2986   18.6710 H   0  0  0  0  0  0  0  0  0  0  0  0
    5.5669    1.5898   17.1774 H   0  0  0  0  0  0  0  0  0  0  0  0
    4.6044    1.7180   19.2502 H   0  0  0  0  0  0  0  0  0  0  0  0
    4.6733   -0.2359   21.8319 H   0  0  0  0  0  0  0  0  0  0  0  0
    6.0741    0.6695   22.4985 H   0  0  0  0  0  0  0  0  0  0  0  0
    4.6660    1.5603   21.8273 H   0  0  0  0  0  0  0  0  0  0  0  0
 20 21  2  0  0  0  0
 19 20  1  0  0  0  0
 21 22  1  0  0  0  0
 18 19  2  0  0  0  0
 22 23  2  0  0  0  0
 18 23  1  0  0  0  0
 17 18  1  0  0  0  0
 23 24  1  0  0  0  0
 15 16  2  0  0  0  0
 15 17  1  0  0  0  0
 14 15  1  0  0  0  0
  8 14  1  0  0  0  0
 12 13  2  0  0  0  0
 11 12  1  0  0  0  0
  7  8  1  0  0  0  0
  8  9  1  0  0  0  0
 10 11  1  0  0  0  0
  6  7  2  3  0  0  0
  5  6  1  0  0  0  0
  9 10  2  0  0  0  0
  2  5  1  0  0  0  0
  2  3  2  0  0  0  0
  1  2  1  0  0  0  0
  2  4  2  0  0  0  0
  1 25  1  0  0  0  0
  1 26  1  0  0  0  0
  1 27  1  0  0  0  0
  5 28  1  0  0  0  0
  6 29  1  0  0  0  0
  7 30  1  0  0  0  0
  8 31  1  0  0  0  0
  9 32  1  0  0  0  0
 10 33  1  0  0  0  0
 11 34  1  0  0  0  0
 11 35  1  0  0  0  0
 12 36  1  0  0  0  0
 13 37  1  0  0  0  0
 13 38  1  0  0  0  0
 14 39  1  0  0  0  0
 14 40  1  0  0  0  0
 17 41  1  0  0  0  0
 19 42  1  0  0  0  0
 21 43  1  0  0  0  0
 22 44  1  0  0  0  0
 24 45  1  0  0  0  0
 24 46  1  0  0  0  0
 24 47  1  0  0  0  0
M  END
> <Chemgauss4>
-13.041769

$$$$
