stable:False satoms:9 tatoms:24 sratio:0.375
  -OEChem-08062417573D

 47 47  0     1  0  0  0  0  0999 V2000
   -6.6710   -5.3090  -26.0299 C   0  0  0  0  0  0  0  0  0  0  0  0
   -8.3620   -4.6769  -25.7405 S   0  0  0  0  0  0  0  0  0  0  0  0
   -9.1908   -5.8544  -25.6426 O   0  0  0  0  0  0  0  0  0  0  0  0
   -8.7036   -3.8632  -26.8539 O   0  0  0  0  0  0  0  0  0  0  0  0
   -8.2638   -3.8579  -24.3465 N   0  0  0  0  0  0  0  0  0  0  0  0
   -9.1445   -3.1777  -23.9247 C   0  0  0  0  0  0  0  0  0  0  0  0
   -9.5864   -2.1515  -23.4002 C   0  0  0  0  0  0  0  0  0  0  0  0
  -10.4823   -1.2413  -23.3559 C   0  0  2  0  0  0  0  0  0  0  0  0
  -11.0922   -0.3259  -24.3848 C   0  0  0  0  0  0  0  0  0  0  0  0
  -12.2867    0.0988  -24.4042 C   0  0  0  0  0  0  0  0  0  0  0  0
  -13.2700   -0.3061  -23.6362 C   0  0  0  0  0  0  0  0  0  0  0  0
  -12.8933   -1.3942  -22.6632 C   0  0  0  0  0  0  0  0  0  0  0  0
  -12.0176   -1.8201  -22.4926 C   0  0  0  0  0  0  0  0  0  0  0  0
   -9.9148   -0.6648  -22.4189 C   0  0  0  0  0  0  0  0  0  0  0  0
   -9.2963    0.0507  -21.4737 C   0  0  0  0  0  0  0  0  0  0  0  0
   -9.7880    1.0296  -21.1792 O   0  0  0  0  0  0  0  0  0  0  0  0
   -8.1823   -0.4937  -21.0836 N   0  0  0  0  0  0  0  0  0  0  0  0
   -7.4556    0.0220  -20.1875 C   0  0  0  0  0  0  0  0  0  0  0  0
   -7.4764    0.2137  -18.9122 C   0  0  0  0  0  0  0  0  0  0  0  0
   -7.0705    0.5755  -17.8575 N   0  0  0  0  0  0  0  0  0  0  0  0
   -5.9108    1.1458  -18.2438 C   0  0  0  0  0  0  0  0  0  0  0  0
   -5.4795    1.1617  -19.4930 C   0  0  0  0  0  0  0  0  0  0  0  0
   -6.0219    0.6443  -20.5807 C   0  0  0  0  0  0  0  0  0  0  0  0
   -5.5045    0.5977  -22.0159 C   0  0  0  0  0  0  0  0  0  0  0  0
   -6.6493   -5.8836  -26.9677 H   0  0  0  0  0  0  0  0  0  0  0  0
   -5.9710   -4.4636  -26.1018 H   0  0  0  0  0  0  0  0  0  0  0  0
   -6.3751   -5.9601  -25.1942 H   0  0  0  0  0  0  0  0  0  0  0  0
   -7.4715   -3.2548  -24.4382 H   0  0  0  0  0  0  0  0  0  0  0  0
  -10.0273   -3.7782  -24.0874 H   0  0  0  0  0  0  0  0  0  0  0  0
   -8.8913   -1.9100  -22.6097 H   0  0  0  0  0  0  0  0  0  0  0  0
  -11.3631   -1.7286  -22.9124 H   0  0  0  0  0  0  0  0  0  0  0  0
  -10.4472    0.0016  -25.1867 H   0  0  0  0  0  0  0  0  0  0  0  0
  -12.5173    0.8702  -25.1241 H   0  0  0  0  0  0  0  0  0  0  0  0
  -14.0763   -0.6855  -24.2811 H   0  0  0  0  0  0  0  0  0  0  0  0
  -13.6358    0.5576  -23.0616 H   0  0  0  0  0  0  0  0  0  0  0  0
  -13.7068   -1.7663  -22.0582 H   0  0  0  0  0  0  0  0  0  0  0  0
  -11.9308   -2.5960  -21.7463 H   0  0  0  0  0  0  0  0  0  0  0  0
  -11.1478   -1.5097  -23.0525 H   0  0  0  0  0  0  0  0  0  0  0  0
   -9.1495   -1.4529  -22.3615 H   0  0  0  0  0  0  0  0  0  0  0  0
  -10.7413   -0.9057  -21.7342 H   0  0  0  0  0  0  0  0  0  0  0  0
   -7.8900   -1.3510  -21.5076 H   0  0  0  0  0  0  0  0  0  0  0  0
   -8.4355   -0.2046  -18.6447 H   0  0  0  0  0  0  0  0  0  0  0  0
   -5.2992    1.6168  -17.4885 H   0  0  0  0  0  0  0  0  0  0  0  0
   -4.5421    1.6752  -19.6479 H   0  0  0  0  0  0  0  0  0  0  0  0
   -4.9233   -0.3239  -22.1670 H   0  0  0  0  0  0  0  0  0  0  0  0
   -6.3553    0.6129  -22.7129 H   0  0  0  0  0  0  0  0  0  0  0  0
   -4.8620    1.4709  -22.2024 H   0  0  0  0  0  0  0  0  0  0  0  0
 20 21  2  0  0  0  0
 19 20  1  0  0  0  0
 21 22  1  0  0  0  0
 18 19  2  0  0  0  0
 22 23  2  0  0  0  0
 18 23  1  0  0  0  0
 17 18  1  0  0  0  0
 23 24  1  0  0  0  0
 15 16  2  0  0  0  0
 15 17  1  0  0  0  0
 14 15  1  0  0  0  0
  8 14  1  0  0  0  0
 12 13  2  0  0  0  0
 11 12  1  0  0  0  0
  7  8  1  0  0  0  0
  8  9  1  0  0  0  0
 10 11  1  0  0  0  0
  6  7  2  3  0  0  0
  5  6  1  0  0  0  0
  9 10  2  0  0  0  0
  2  5  1  0  0  0  0
  2  3  2  0  0  0  0
  1  2  1  0  0  0  0
  2  4  2  0  0  0  0
  1 25  1  0  0  0  0
  1 26  1  0  0  0  0
  1 27  1  0  0  0  0
  5 28  1  0  0  0  0
  6 29  1  0  0  0  0
  7 30  1  0  0  0  0
  8 31  1  0  0  0  0
  9 32  1  0  0  0  0
 10 33  1  0  0  0  0
 11 34  1  0  0  0  0
 11 35  1  0  0  0  0
 12 36  1  0  0  0  0
 13 37  1  0  0  0  0
 13 38  1  0  0  0  0
 14 39  1  0  0  0  0
 14 40  1  0  0  0  0
 17 41  1  0  0  0  0
 19 42  1  0  0  0  0
 21 43  1  0  0  0  0
 22 44  1  0  0  0  0
 24 45  1  0  0  0  0
 24 46  1  0  0  0  0
 24 47  1  0  0  0  0
M  END
> <Chemgauss4>
-13.035532

$$$$
