REMARK  2 active torsions:
REMARK  status: ('A' for Active; 'I' for Inactive)
REMARK    1  A    between atoms: C_8  and  C_9 
REMARK       I    between atoms: C_9  and  N_11 
REMARK    2  A    between atoms: N_11  and  C_12 
ROOT
HETATM    1  C   UNL     1       5.346  -3.120   2.073  1.00  0.00     0.231 C 
HETATM    2  O   UNL     1       4.880  -2.349   2.913  1.00  0.00    -0.272 OA
HETATM    3  N   UNL     1       5.708  -4.432   2.297  1.00  0.00    -0.325 N 
HETATM    4  H   UNL     1       6.141  -4.916   1.524  1.00  0.00     0.169 HD
ENDROOT
BRANCH   1   5
HETATM    5  C   UNL     1       5.541  -2.647   0.624  1.00  0.00     0.122 C 
HETATM    6  C   UNL     1       6.978  -2.731   0.165  1.00  0.00    -0.017 A 
HETATM    7  C   UNL     1       7.397  -3.815  -0.617  1.00  0.00     0.042 A 
HETATM    8  C   UNL     1       7.921  -1.767   0.555  1.00  0.00     0.029 A 
HETATM    9  C   UNL     1       8.723  -3.945  -1.007  1.00  0.00     0.031 A 
HETATM   10  N   UNL     1       6.480  -4.804  -0.969  1.00  0.00    -0.327 N 
HETATM   11  C   UNL     1       9.657  -2.974  -0.628  1.00  0.00     0.021 A 
HETATM   12  C   UNL     1       9.250  -1.892   0.152  1.00  0.00     0.011 A 
HETATM   13 BR   UNL     1      10.514  -0.590   0.677  1.00  0.00    -0.051 Br
HETATM   14  C   UNL     1       5.123  -4.708  -0.781  1.00  0.00     0.223 C 
HETATM   15  H   UNL     1       6.798  -5.652  -1.425  1.00  0.00     0.169 HD
HETATM   16  C   UNL     1       4.594  -3.374  -0.325  1.00  0.00     0.122 C 
HETATM   17  O   UNL     1       4.397  -5.669  -1.034  1.00  0.00    -0.273 OA
ENDBRANCH   1   5
BRANCH   3  18
HETATM   18  C   UNL     1       5.734  -5.134   3.529  1.00  0.00     0.061 C 
HETATM   19  C   UNL     1       5.427  -4.539   4.750  1.00  0.00     0.118 C 
HETATM   20  N   UNL     1       5.638  -5.119   5.956  1.00  0.00    -0.372 N 
HETATM   21  C   UNL     1       6.122  -6.377   5.943  1.00  0.00     0.100 C 
ATOM     22  HN  UNL     1       5.441  -4.629   6.829  1.00  0.00     0.164 HD
HETATM   23  C   UNL     1       6.335  -7.130   4.790  1.00  0.00    -0.008 A 
HETATM   24  C   UNL     1       6.703  -8.486   4.864  1.00  0.00     0.014 A 
HETATM   25  C   UNL     1       6.146  -6.498   3.539  1.00  0.00     0.004 A 
HETATM   26  C   UNL     1       6.872  -9.243   3.706  1.00  0.00     0.001 A 
HETATM   27  C   UNL     1       6.708  -8.644   2.465  1.00  0.00     0.001 A 
HETATM   28  C   UNL     1       6.355  -7.295   2.381  1.00  0.00     0.014 A 
ENDBRANCH   3  18
TORSDOF 2
