MODEL 1
REMARK VINA RESULT:    -6.195      0.000      0.000
REMARK INTER + INTRA:          -7.328
REMARK INTER:                  -6.920
REMARK INTRA:                  -0.409
REMARK UNBOUND:                -0.409
REMARK  2 active torsions:
REMARK  status: ('A' for Active; 'I' for Inactive)
REMARK    1  A    between atoms: C_8  and  C_9 
REMARK       I    between atoms: C_9  and  N_11 
REMARK    2  A    between atoms: N_11  and  C_12 
ROOT
HETATM    1  C   UNL     1       0.813  -1.839 -12.463  1.00  0.00     0.231 C 
HETATM    2  O   UNL     1       1.084  -0.753 -11.949  1.00  0.00    -0.272 OA
HETATM    3  N   UNL     1       1.422  -3.042 -12.172  1.00  0.00    -0.325 N 
HETATM    4  H   UNL     1       1.137  -3.835 -12.728  1.00  0.00     0.169 HD
ENDROOT
BRANCH   1   5
HETATM    5  C   UNL     1      -0.309  -1.933 -13.508  1.00  0.00     0.122 C 
HETATM    6  C   UNL     1       0.210  -2.126 -14.914  1.00  0.00    -0.017 A 
HETATM    7  C   UNL     1       0.221  -3.407 -15.482  1.00  0.00     0.042 A 
HETATM    8  C   UNL     1       0.736  -1.051 -15.647  1.00  0.00     0.029 A 
HETATM    9  C   UNL     1       0.741  -3.621 -16.751  1.00  0.00     0.031 A 
HETATM   10  N   UNL     1      -0.254  -4.490 -14.745  1.00  0.00    -0.327 N 
HETATM   11  C   UNL     1       1.252  -2.544 -17.484  1.00  0.00     0.021 A 
HETATM   12  C   UNL     1       1.247  -1.266 -16.927  1.00  0.00     0.011 A 
HETATM   13 BR   UNL     1       1.950   0.186 -17.910  1.00  0.00    -0.051 Br
HETATM   14  C   UNL     1      -0.932  -4.383 -13.556  1.00  0.00     0.223 C 
HETATM   15  H   UNL     1      -0.134  -5.434 -15.096  1.00  0.00     0.169 HD
HETATM   16  C   UNL     1      -1.332  -2.997 -13.125  1.00  0.00     0.122 C 
HETATM   17  O   UNL     1      -1.231  -5.397 -12.924  1.00  0.00    -0.273 OA
ENDBRANCH   1   5
BRANCH   3  18
HETATM   18  C   UNL     1       2.538  -3.276 -11.328  1.00  0.00     0.061 C 
HETATM   19  C   UNL     1       3.824  -2.834 -11.628  1.00  0.00     0.118 C 
HETATM   20  N   UNL     1       4.937  -3.212 -10.955  1.00  0.00    -0.372 N 
HETATM   21  C   UNL     1       4.753  -4.022  -9.893  1.00  0.00     0.100 C 
ATOM     22  HN  UNL     1       5.867  -2.901 -11.237  1.00  0.00     0.164 HD
HETATM   23  C   UNL     1       3.508  -4.417  -9.407  1.00  0.00    -0.008 A 
HETATM   24  C   UNL     1       3.392  -5.143  -8.207  1.00  0.00     0.014 A 
HETATM   25  C   UNL     1       2.359  -4.045 -10.142  1.00  0.00     0.004 A 
HETATM   26  C   UNL     1       2.140  -5.497  -7.706  1.00  0.00     0.001 A 
HETATM   27  C   UNL     1       0.997  -5.158  -8.415  1.00  0.00     0.001 A 
HETATM   28  C   UNL     1       1.102  -4.448  -9.614  1.00  0.00     0.014 A 
ENDBRANCH   3  18
TORSDOF 2
ENDMDL
MODEL 2
REMARK VINA RESULT:    -6.166      3.676      7.114
REMARK INTER + INTRA:          -7.295
REMARK INTER:                  -6.792
REMARK INTRA:                  -0.503
REMARK UNBOUND:                -0.409
REMARK  2 active torsions:
REMARK  status: ('A' for Active; 'I' for Inactive)
REMARK    1  A    between atoms: C_8  and  C_9 
REMARK       I    between atoms: C_9  and  N_11 
REMARK    2  A    between atoms: N_11  and  C_12 
ROOT
HETATM    1  C   UNL     1       0.731  -4.349  -9.471  1.00  0.00     0.231 C 
HETATM    2  O   UNL     1      -0.493  -4.354  -9.329  1.00  0.00    -0.272 OA
HETATM    3  N   UNL     1       1.425  -3.666 -10.447  1.00  0.00    -0.325 N 
HETATM    4  H   UNL     1       2.423  -3.817 -10.476  1.00  0.00     0.169 HD
ENDROOT
BRANCH   1   5
HETATM    5  C   UNL     1       1.618  -5.132  -8.491  1.00  0.00     0.122 C 
HETATM    6  C   UNL     1       1.851  -6.562  -8.920  1.00  0.00    -0.017 A 
HETATM    7  C   UNL     1       3.046  -6.910  -9.564  1.00  0.00     0.042 A 
HETATM    8  C   UNL     1       0.865  -7.544  -8.735  1.00  0.00     0.029 A 
HETATM    9  C   UNL     1       3.263  -8.204 -10.017  1.00  0.00     0.031 A 
HETATM   10  N   UNL     1       4.011  -5.932  -9.797  1.00  0.00    -0.327 N 
HETATM   11  C   UNL     1       2.284  -9.183  -9.818  1.00  0.00     0.021 A 
HETATM   12  C   UNL     1       1.090  -8.846  -9.180  1.00  0.00     0.011 A 
HETATM   13 BR   UNL     1      -0.239 -10.165  -8.926  1.00  0.00    -0.051 Br
HETATM   14  C   UNL     1       3.982  -4.667  -9.261  1.00  0.00     0.223 C 
HETATM   15  H   UNL     1       4.820  -6.143 -10.370  1.00  0.00     0.169 HD
HETATM   16  C   UNL     1       2.926  -4.395  -8.223  1.00  0.00     0.122 C 
HETATM   17  O   UNL     1       4.826  -3.837  -9.597  1.00  0.00    -0.273 OA
ENDBRANCH   1   5
BRANCH   3  18
HETATM   18  C   UNL     1       0.902  -2.932 -11.542  1.00  0.00     0.061 C 
HETATM   19  C   UNL     1       0.431  -1.627 -11.427  1.00  0.00     0.118 C 
HETATM   20  N   UNL     1      -0.257  -0.976 -12.396  1.00  0.00    -0.372 N 
HETATM   21  C   UNL     1      -0.431  -1.635 -13.558  1.00  0.00     0.100 C 
ATOM     22  HN  UNL     1      -0.624  -0.034 -12.253  1.00  0.00     0.164 HD
HETATM   23  C   UNL     1       0.113  -2.886 -13.846  1.00  0.00    -0.008 A 
HETATM   24  C   UNL     1       0.009  -3.445 -15.133  1.00  0.00     0.014 A 
HETATM   25  C   UNL     1       0.796  -3.568 -12.813  1.00  0.00     0.004 A 
HETATM   26  C   UNL     1       0.594  -4.677 -15.424  1.00  0.00     0.001 A 
HETATM   27  C   UNL     1       1.256  -5.375 -14.424  1.00  0.00     0.001 A 
HETATM   28  C   UNL     1       1.353  -4.833 -13.140  1.00  0.00     0.014 A 
ENDBRANCH   3  18
TORSDOF 2
ENDMDL
MODEL 3
REMARK VINA RESULT:    -6.097      2.659      3.629
REMARK INTER + INTRA:          -7.219
REMARK INTER:                  -6.612
REMARK INTRA:                  -0.607
REMARK UNBOUND:                -0.409
REMARK  2 active torsions:
REMARK  status: ('A' for Active; 'I' for Inactive)
REMARK    1  A    between atoms: C_8  and  C_9 
REMARK       I    between atoms: C_9  and  N_11 
REMARK    2  A    between atoms: N_11  and  C_12 
ROOT
HETATM    1  C   UNL     1       0.842  -2.220 -12.781  1.00  0.00     0.231 C 
HETATM    2  O   UNL     1       1.075  -1.084 -12.366  1.00  0.00    -0.272 OA
HETATM    3  N   UNL     1       1.421  -3.382 -12.314  1.00  0.00    -0.325 N 
HETATM    4  H   UNL     1       1.179  -4.231 -12.804  1.00  0.00     0.169 HD
ENDROOT
BRANCH   1   5
HETATM    5  C   UNL     1      -0.193  -2.430 -13.897  1.00  0.00     0.122 C 
HETATM    6  C   UNL     1      -1.344  -1.454 -13.826  1.00  0.00    -0.017 A 
HETATM    7  C   UNL     1      -1.354  -0.328 -14.658  1.00  0.00     0.042 A 
HETATM    8  C   UNL     1      -2.383  -1.624 -12.897  1.00  0.00     0.029 A 
HETATM    9  C   UNL     1      -2.371   0.614 -14.576  1.00  0.00     0.031 A 
HETATM   10  N   UNL     1      -0.302  -0.122 -15.550  1.00  0.00    -0.327 N 
HETATM   11  C   UNL     1      -3.412   0.433 -13.658  1.00  0.00     0.021 A 
HETATM   12  C   UNL     1      -3.410  -0.685 -12.824  1.00  0.00     0.011 A 
HETATM   13 BR   UNL     1      -4.807  -0.921 -11.574  1.00  0.00    -0.051 Br
HETATM   14  C   UNL     1       0.668  -1.051 -15.834  1.00  0.00     0.223 C 
HETATM   15  H   UNL     1      -0.236   0.749 -16.064  1.00  0.00     0.169 HD
HETATM   16  C   UNL     1       0.470  -2.434 -15.270  1.00  0.00     0.122 C 
HETATM   17  O   UNL     1       1.614  -0.751 -16.562  1.00  0.00    -0.273 OA
ENDBRANCH   1   5
BRANCH   3  18
HETATM   18  C   UNL     1       2.464  -3.519 -11.364  1.00  0.00     0.061 C 
HETATM   19  C   UNL     1       3.755  -3.042 -11.577  1.00  0.00     0.118 C 
HETATM   20  N   UNL     1       4.816  -3.333 -10.787  1.00  0.00    -0.372 N 
HETATM   21  C   UNL     1       4.567  -4.086  -9.697  1.00  0.00     0.100 C 
ATOM     22  HN  UNL     1       5.755  -2.999 -11.005  1.00  0.00     0.164 HD
HETATM   23  C   UNL     1       3.299  -4.504  -9.298  1.00  0.00    -0.008 A 
HETATM   24  C   UNL     1       3.103  -5.163  -8.071  1.00  0.00     0.014 A 
HETATM   25  C   UNL     1       2.208  -4.225 -10.153  1.00  0.00     0.004 A 
HETATM   26  C   UNL     1       1.826  -5.540  -7.660  1.00  0.00     0.001 A 
HETATM   27  C   UNL     1       0.739  -5.292  -8.486  1.00  0.00     0.001 A 
HETATM   28  C   UNL     1       0.925  -4.649  -9.713  1.00  0.00     0.014 A 
ENDBRANCH   3  18
TORSDOF 2
ENDMDL
MODEL 4
REMARK VINA RESULT:    -6.081      6.753      8.100
REMARK INTER + INTRA:          -7.201
REMARK INTER:                  -6.674
REMARK INTRA:                  -0.527
REMARK UNBOUND:                -0.409
REMARK  2 active torsions:
REMARK  status: ('A' for Active; 'I' for Inactive)
REMARK    1  A    between atoms: C_8  and  C_9 
REMARK       I    between atoms: C_9  and  N_11 
REMARK    2  A    between atoms: N_11  and  C_12 
ROOT
HETATM    1  C   UNL     1      -1.925   0.674  -7.407  1.00  0.00     0.231 C 
HETATM    2  O   UNL     1      -0.998   1.481  -7.315  1.00  0.00    -0.272 OA
HETATM    3  N   UNL     1      -2.408  -0.117  -6.385  1.00  0.00    -0.325 N 
HETATM    4  H   UNL     1      -3.127  -0.781  -6.634  1.00  0.00     0.169 HD
ENDROOT
BRANCH   1   5
HETATM    5  C   UNL     1      -2.664   0.506  -8.743  1.00  0.00     0.122 C 
HETATM    6  C   UNL     1      -3.150   1.816  -9.317  1.00  0.00    -0.017 A 
HETATM    7  C   UNL     1      -2.415   2.449 -10.328  1.00  0.00     0.042 A 
HETATM    8  C   UNL     1      -4.300   2.445  -8.815  1.00  0.00     0.029 A 
HETATM    9  C   UNL     1      -2.810   3.680 -10.835  1.00  0.00     0.031 A 
HETATM   10  N   UNL     1      -1.244   1.858 -10.800  1.00  0.00    -0.327 N 
HETATM   11  C   UNL     1      -3.965   4.296 -10.342  1.00  0.00     0.021 A 
HETATM   12  C   UNL     1      -4.702   3.675  -9.334  1.00  0.00     0.011 A 
HETATM   13 BR   UNL     1      -6.253   4.515  -8.657  1.00  0.00    -0.051 Br
HETATM   14  C   UNL     1      -0.841   0.581 -10.494  1.00  0.00     0.223 C 
HETATM   15  H   UNL     1      -0.641   2.365 -11.438  1.00  0.00     0.169 HD
HETATM   16  C   UNL     1      -1.822  -0.280  -9.744  1.00  0.00     0.122 C 
HETATM   17  O   UNL     1       0.255   0.174 -10.878  1.00  0.00    -0.273 OA
ENDBRANCH   1   5
BRANCH   3  18
HETATM   18  C   UNL     1      -1.893  -0.261  -5.072  1.00  0.00     0.061 C 
HETATM   19  C   UNL     1      -1.801   0.796  -4.171  1.00  0.00     0.118 C 
HETATM   20  N   UNL     1      -1.133   0.740  -2.994  1.00  0.00    -0.372 N 
HETATM   21  C   UNL     1      -0.580  -0.447  -2.671  1.00  0.00     0.100 C 
ATOM     22  HN  UNL     1      -1.052   1.553  -2.383  1.00  0.00     0.164 HD
HETATM   23  C   UNL     1      -0.722  -1.614  -3.418  1.00  0.00    -0.008 A 
HETATM   24  C   UNL     1      -0.239  -2.847  -2.942  1.00  0.00     0.014 A 
HETATM   25  C   UNL     1      -1.391  -1.530  -4.662  1.00  0.00     0.004 A 
HETATM   26  C   UNL     1      -0.424  -4.017  -3.676  1.00  0.00     0.001 A 
HETATM   27  C   UNL     1      -1.062  -3.961  -4.907  1.00  0.00     0.001 A 
HETATM   28  C   UNL     1      -1.535  -2.739  -5.394  1.00  0.00     0.014 A 
ENDBRANCH   3  18
TORSDOF 2
ENDMDL
MODEL 5
REMARK VINA RESULT:    -6.028     27.478     29.803
REMARK INTER + INTRA:          -7.142
REMARK INTER:                  -6.344
REMARK INTRA:                  -0.798
REMARK UNBOUND:                -0.409
REMARK  2 active torsions:
REMARK  status: ('A' for Active; 'I' for Inactive)
REMARK    1  A    between atoms: C_8  and  C_9 
REMARK       I    between atoms: C_9  and  N_11 
REMARK    2  A    between atoms: N_11  and  C_12 
ROOT
HETATM    1  C   UNL     1       9.892  21.060 -22.538  1.00  0.00     0.231 C 
HETATM    2  O   UNL     1       9.017  20.211 -22.715  1.00  0.00    -0.272 OA
HETATM    3  N   UNL     1       9.680  22.366 -22.147  1.00  0.00    -0.325 N 
HETATM    4  H   UNL     1      10.494  22.961 -22.112  1.00  0.00     0.169 HD
ENDROOT
BRANCH   1   5
HETATM    5  C   UNL     1      11.370  20.687 -22.728  1.00  0.00     0.122 C 
HETATM    6  C   UNL     1      12.249  21.884 -23.007  1.00  0.00    -0.017 A 
HETATM    7  C   UNL     1      13.000  22.453 -21.970  1.00  0.00     0.042 A 
HETATM    8  C   UNL     1      12.285  22.477 -24.279  1.00  0.00     0.029 A 
HETATM    9  C   UNL     1      13.774  23.586 -22.186  1.00  0.00     0.031 A 
HETATM   10  N   UNL     1      12.934  21.903 -20.691  1.00  0.00    -0.327 N 
HETATM   11  C   UNL     1      13.818  24.164 -23.460  1.00  0.00     0.021 A 
HETATM   12  C   UNL     1      13.072  23.607 -24.498  1.00  0.00     0.011 A 
HETATM   13 BR   UNL     1      13.120  24.397 -26.213  1.00  0.00    -0.051 Br
HETATM   14  C   UNL     1      12.338  20.703 -20.391  1.00  0.00     0.223 C 
HETATM   15  H   UNL     1      13.372  22.379 -19.911  1.00  0.00     0.169 HD
HETATM   16  C   UNL     1      11.885  19.861 -21.555  1.00  0.00     0.122 C 
HETATM   17  O   UNL     1      12.241  20.339 -19.219  1.00  0.00    -0.273 OA
ENDBRANCH   1   5
BRANCH   3  18
HETATM   18  C   UNL     1       8.443  23.038 -21.977  1.00  0.00     0.061 C 
HETATM   19  C   UNL     1       7.728  23.025 -20.782  1.00  0.00     0.118 C 
HETATM   20  N   UNL     1       6.459  23.479 -20.647  1.00  0.00    -0.372 N 
HETATM   21  C   UNL     1       5.896  24.029 -21.741  1.00  0.00     0.100 C 
ATOM     22  HN  UNL     1       5.955  23.409 -19.762  1.00  0.00     0.164 HD
HETATM   23  C   UNL     1       6.555  24.229 -22.953  1.00  0.00    -0.008 A 
HETATM   24  C   UNL     1       5.947  24.942 -24.002  1.00  0.00     0.014 A 
HETATM   25  C   UNL     1       7.866  23.716 -23.089  1.00  0.00     0.004 A 
HETATM   26  C   UNL     1       6.630  25.174 -25.195  1.00  0.00     0.001 A 
HETATM   27  C   UNL     1       7.911  24.669 -25.362  1.00  0.00     0.001 A 
HETATM   28  C   UNL     1       8.518  23.949 -24.330  1.00  0.00     0.014 A 
ENDBRANCH   3  18
TORSDOF 2
ENDMDL
MODEL 6
REMARK VINA RESULT:    -5.813      5.255      7.691
REMARK INTER + INTRA:          -6.901
REMARK INTER:                  -6.393
REMARK INTRA:                  -0.508
REMARK UNBOUND:                -0.409
REMARK  2 active torsions:
REMARK  status: ('A' for Active; 'I' for Inactive)
REMARK    1  A    between atoms: C_8  and  C_9 
REMARK       I    between atoms: C_9  and  N_11 
REMARK    2  A    between atoms: N_11  and  C_12 
ROOT
HETATM    1  C   UNL     1       1.024  -5.389  -7.745  1.00  0.00     0.231 C 
HETATM    2  O   UNL     1       0.055  -5.725  -8.428  1.00  0.00    -0.272 OA
HETATM    3  N   UNL     1       0.971  -4.653  -6.580  1.00  0.00    -0.325 N 
HETATM    4  H   UNL     1       1.857  -4.397  -6.171  1.00  0.00     0.169 HD
ENDROOT
BRANCH   1   5
HETATM    5  C   UNL     1       2.439  -5.818  -8.161  1.00  0.00     0.122 C 
HETATM    6  C   UNL     1       2.449  -7.048  -9.038  1.00  0.00    -0.017 A 
HETATM    7  C   UNL     1       2.579  -6.912 -10.426  1.00  0.00     0.042 A 
HETATM    8  C   UNL     1       2.274  -8.329  -8.492  1.00  0.00     0.029 A 
HETATM    9  C   UNL     1       2.537  -8.021 -11.260  1.00  0.00     0.031 A 
HETATM   10  N   UNL     1       2.704  -5.641 -10.984  1.00  0.00    -0.327 N 
HETATM   11  C   UNL     1       2.376  -9.298 -10.710  1.00  0.00     0.021 A 
HETATM   12  C   UNL     1       2.244  -9.444  -9.329  1.00  0.00     0.011 A 
HETATM   13 BR   UNL     1       2.012 -11.166  -8.589  1.00  0.00    -0.051 Br
HETATM   14  C   UNL     1       2.917  -4.493 -10.261  1.00  0.00     0.223 C 
HETATM   15  H   UNL     1       2.672  -5.523 -11.991  1.00  0.00     0.169 HD
HETATM   16  C   UNL     1       3.203  -4.659  -8.793  1.00  0.00     0.122 C 
HETATM   17  O   UNL     1       2.919  -3.400 -10.828  1.00  0.00    -0.273 OA
ENDBRANCH   1   5
BRANCH   3  18
HETATM   18  C   UNL     1      -0.160  -4.039  -5.984  1.00  0.00     0.061 C 
HETATM   19  C   UNL     1      -0.983  -3.142  -6.661  1.00  0.00     0.118 C 
HETATM   20  N   UNL     1      -1.940  -2.388  -6.068  1.00  0.00    -0.372 N 
HETATM   21  C   UNL     1      -2.127  -2.581  -4.747  1.00  0.00     0.100 C 
ATOM     22  HN  UNL     1      -2.490  -1.708  -6.594  1.00  0.00     0.164 HD
HETATM   23  C   UNL     1      -1.468  -3.546  -3.989  1.00  0.00    -0.008 A 
HETATM   24  C   UNL     1      -1.823  -3.785  -2.648  1.00  0.00     0.014 A 
HETATM   25  C   UNL     1      -0.446  -4.299  -4.613  1.00  0.00     0.004 A 
HETATM   26  C   UNL     1      -1.188  -4.783  -1.910  1.00  0.00     0.001 A 
HETATM   27  C   UNL     1      -0.171  -5.526  -2.493  1.00  0.00     0.001 A 
HETATM   28  C   UNL     1       0.197  -5.287  -3.819  1.00  0.00     0.014 A 
ENDBRANCH   3  18
TORSDOF 2
ENDMDL
MODEL 7
REMARK VINA RESULT:    -5.773      7.507     10.584
REMARK INTER + INTRA:          -6.857
REMARK INTER:                  -6.209
REMARK INTRA:                  -0.648
REMARK UNBOUND:                -0.409
REMARK  2 active torsions:
REMARK  status: ('A' for Active; 'I' for Inactive)
REMARK    1  A    between atoms: C_8  and  C_9 
REMARK       I    between atoms: C_9  and  N_11 
REMARK    2  A    between atoms: N_11  and  C_12 
ROOT
HETATM    1  C   UNL     1      -2.183   0.249  -6.430  1.00  0.00     0.231 C 
HETATM    2  O   UNL     1      -1.180   0.843  -6.032  1.00  0.00    -0.272 OA
HETATM    3  N   UNL     1      -2.724   0.342  -7.696  1.00  0.00    -0.325 N 
HETATM    4  H   UNL     1      -3.591  -0.153  -7.850  1.00  0.00     0.169 HD
ENDROOT
BRANCH   1   5
HETATM    5  C   UNL     1      -2.927  -0.714  -5.491  1.00  0.00     0.122 C 
HETATM    6  C   UNL     1      -1.995  -1.599  -4.697  1.00  0.00    -0.017 A 
HETATM    7  C   UNL     1      -1.688  -1.272  -3.370  1.00  0.00     0.042 A 
HETATM    8  C   UNL     1      -1.384  -2.719  -5.282  1.00  0.00     0.029 A 
HETATM    9  C   UNL     1      -0.793  -2.037  -2.634  1.00  0.00     0.031 A 
HETATM   10  N   UNL     1      -2.250  -0.134  -2.794  1.00  0.00    -0.327 N 
HETATM   11  C   UNL     1      -0.197  -3.161  -3.217  1.00  0.00     0.021 A 
HETATM   12  C   UNL     1      -0.496  -3.494  -4.538  1.00  0.00     0.011 A 
HETATM   13 BR   UNL     1       0.321  -5.002  -5.329  1.00  0.00    -0.051 Br
HETATM   14  C   UNL     1      -3.260   0.605  -3.359  1.00  0.00     0.223 C 
HETATM   15  H   UNL     1      -1.938   0.180  -1.881  1.00  0.00     0.169 HD
HETATM   16  C   UNL     1      -3.906   0.037  -4.595  1.00  0.00     0.122 C 
HETATM   17  O   UNL     1      -3.631   1.650  -2.826  1.00  0.00    -0.273 OA
ENDBRANCH   1   5
BRANCH   3  18
HETATM   18  C   UNL     1      -2.331   1.199  -8.754  1.00  0.00     0.061 C 
HETATM   19  C   UNL     1      -1.139   1.044  -9.456  1.00  0.00     0.118 C 
HETATM   20  N   UNL     1      -0.641   1.956 -10.325  1.00  0.00    -0.372 N 
HETATM   21  C   UNL     1      -1.398   3.048 -10.552  1.00  0.00     0.100 C 
ATOM     22  HN  UNL     1       0.261   1.824 -10.784  1.00  0.00     0.164 HD
HETATM   23  C   UNL     1      -2.671   3.251 -10.023  1.00  0.00    -0.008 A 
HETATM   24  C   UNL     1      -3.459   4.346 -10.422  1.00  0.00     0.014 A 
HETATM   25  C   UNL     1      -3.160   2.309  -9.089  1.00  0.00     0.004 A 
HETATM   26  C   UNL     1      -4.747   4.518  -9.920  1.00  0.00     0.001 A 
HETATM   27  C   UNL     1      -5.247   3.617  -8.990  1.00  0.00     0.001 A 
HETATM   28  C   UNL     1      -4.467   2.534  -8.578  1.00  0.00     0.014 A 
ENDBRANCH   3  18
TORSDOF 2
ENDMDL
MODEL 8
REMARK VINA RESULT:    -5.672      4.820      7.112
REMARK INTER + INTRA:          -6.743
REMARK INTER:                  -6.170
REMARK INTRA:                  -0.574
REMARK UNBOUND:                -0.409
REMARK  2 active torsions:
REMARK  status: ('A' for Active; 'I' for Inactive)
REMARK    1  A    between atoms: C_8  and  C_9 
REMARK       I    between atoms: C_9  and  N_11 
REMARK    2  A    between atoms: N_11  and  C_12 
ROOT
HETATM    1  C   UNL     1       2.813  -4.788  -7.661  1.00  0.00     0.231 C 
HETATM    2  O   UNL     1       3.395  -4.036  -6.879  1.00  0.00    -0.272 OA
HETATM    3  N   UNL     1       1.489  -5.166  -7.580  1.00  0.00    -0.325 N 
HETATM    4  H   UNL     1       1.174  -5.846  -8.258  1.00  0.00     0.169 HD
ENDROOT
BRANCH   1   5
HETATM    5  C   UNL     1       3.565  -5.369  -8.869  1.00  0.00     0.122 C 
HETATM    6  C   UNL     1       2.830  -6.513  -9.527  1.00  0.00    -0.017 A 
HETATM    7  C   UNL     1       2.079  -6.283 -10.686  1.00  0.00     0.042 A 
HETATM    8  C   UNL     1       2.840  -7.799  -8.964  1.00  0.00     0.029 A 
HETATM    9  C   UNL     1       1.350  -7.305 -11.280  1.00  0.00     0.031 A 
HETATM   10  N   UNL     1       2.022  -4.999 -11.226  1.00  0.00    -0.327 N 
HETATM   11  C   UNL     1       1.374  -8.589 -10.725  1.00  0.00     0.021 A 
HETATM   12  C   UNL     1       2.118  -8.828  -9.569  1.00  0.00     0.011 A 
HETATM   13 BR   UNL     1       2.137 -10.557  -8.810  1.00  0.00    -0.051 Br
HETATM   14  C   UNL     1       2.817  -3.953 -10.827  1.00  0.00     0.223 C 
HETATM   15  H   UNL     1       1.384  -4.796 -11.987  1.00  0.00     0.169 HD
HETATM   16  C   UNL     1       3.932  -4.275  -9.867  1.00  0.00     0.122 C 
HETATM   17  O   UNL     1       2.634  -2.828 -11.292  1.00  0.00    -0.273 OA
ENDBRANCH   1   5
BRANCH   3  18
HETATM   18  C   UNL     1       0.559  -4.878  -6.549  1.00  0.00     0.061 C 
HETATM   19  C   UNL     1       0.730  -5.296  -5.232  1.00  0.00     0.118 C 
HETATM   20  N   UNL     1      -0.226  -5.216  -4.276  1.00  0.00    -0.372 N 
HETATM   21  C   UNL     1      -1.389  -4.637  -4.634  1.00  0.00     0.100 C 
ATOM     22  HN  UNL     1      -0.074  -5.577  -3.333  1.00  0.00     0.164 HD
HETATM   23  C   UNL     1      -1.632  -4.053  -5.876  1.00  0.00    -0.008 A 
HETATM   24  C   UNL     1      -2.818  -3.339  -6.125  1.00  0.00     0.014 A 
HETATM   25  C   UNL     1      -0.638  -4.178  -6.874  1.00  0.00     0.004 A 
HETATM   26  C   UNL     1      -3.034  -2.722  -7.356  1.00  0.00     0.001 A 
HETATM   27  C   UNL     1      -2.082  -2.841  -8.359  1.00  0.00     0.001 A 
HETATM   28  C   UNL     1      -0.907  -3.559  -8.125  1.00  0.00     0.014 A 
ENDBRANCH   3  18
TORSDOF 2
ENDMDL
MODEL 9
REMARK VINA RESULT:    -5.662      3.929      7.361
REMARK INTER + INTRA:          -6.733
REMARK INTER:                  -6.105
REMARK INTRA:                  -0.628
REMARK UNBOUND:                -0.409
REMARK  2 active torsions:
REMARK  status: ('A' for Active; 'I' for Inactive)
REMARK    1  A    between atoms: C_8  and  C_9 
REMARK       I    between atoms: C_9  and  N_11 
REMARK    2  A    between atoms: N_11  and  C_12 
ROOT
HETATM    1  C   UNL     1       1.564  -4.422  -9.699  1.00  0.00     0.231 C 
HETATM    2  O   UNL     1       0.465  -3.948  -9.411  1.00  0.00    -0.272 OA
HETATM    3  N   UNL     1       2.321  -4.091 -10.804  1.00  0.00    -0.325 N 
HETATM    4  H   UNL     1       3.171  -4.618 -10.940  1.00  0.00     0.169 HD
ENDROOT
BRANCH   1   5
HETATM    5  C   UNL     1       2.217  -5.460  -8.773  1.00  0.00     0.122 C 
HETATM    6  C   UNL     1       1.211  -6.228  -7.947  1.00  0.00    -0.017 A 
HETATM    7  C   UNL     1       0.815  -7.511  -8.348  1.00  0.00     0.042 A 
HETATM    8  C   UNL     1       0.619  -5.657  -6.810  1.00  0.00     0.029 A 
HETATM    9  C   UNL     1      -0.147  -8.217  -7.638  1.00  0.00     0.031 A 
HETATM   10  N   UNL     1       1.359  -8.069  -9.503  1.00  0.00    -0.327 N 
HETATM   11  C   UNL     1      -0.724  -7.649  -6.497  1.00  0.00     0.021 A 
HETATM   12  C   UNL     1      -0.338  -6.371  -6.091  1.00  0.00     0.011 A 
HETATM   13 BR   UNL     1      -1.129  -5.599  -4.559  1.00  0.00    -0.051 Br
HETATM   14  C   UNL     1       2.424  -7.542 -10.193  1.00  0.00     0.223 C 
HETATM   15  H   UNL     1       0.989  -8.939  -9.870  1.00  0.00     0.169 HD
HETATM   16  C   UNL     1       3.145  -6.387  -9.551  1.00  0.00     0.122 C 
HETATM   17  O   UNL     1       2.778  -8.049 -11.258  1.00  0.00    -0.273 OA
ENDBRANCH   1   5
BRANCH   3  18
HETATM   18  C   UNL     1       1.966  -3.243 -11.884  1.00  0.00     0.061 C 
HETATM   19  C   UNL     1       2.162  -1.864 -11.865  1.00  0.00     0.118 C 
HETATM   20  N   UNL     1       1.653  -1.009 -12.784  1.00  0.00    -0.372 N 
HETATM   21  C   UNL     1       0.967  -1.559 -13.805  1.00  0.00     0.100 C 
ATOM     22  HN  UNL     1       1.782   0.001 -12.706  1.00  0.00     0.164 HD
HETATM   23  C   UNL     1       0.824  -2.930 -14.013  1.00  0.00    -0.008 A 
HETATM   24  C   UNL     1       0.219  -3.429 -15.181  1.00  0.00     0.014 A 
HETATM   25  C   UNL     1       1.328  -3.808 -13.026  1.00  0.00     0.004 A 
HETATM   26  C   UNL     1       0.119  -4.802 -15.401  1.00  0.00     0.001 A 
HETATM   27  C   UNL     1       0.591  -5.686 -14.442  1.00  0.00     0.001 A 
HETATM   28  C   UNL     1       1.182  -5.200 -13.273  1.00  0.00     0.014 A 
ENDBRANCH   3  18
TORSDOF 2
ENDMDL
