MODEL 1
REMARK VINA RESULT:    -7.624      0.000      0.000
REMARK INTER + INTRA:         -10.770
REMARK INTER:                  -9.853
REMARK INTRA:                  -0.917
REMARK UNBOUND:                -0.917
REMARK  5 active torsions:
REMARK  status: ('A' for Active; 'I' for Inactive)
REMARK    1  A    between atoms: S_2  and  N_5 
REMARK    2  A    between atoms: N_5  and  C_7 
REMARK    3  A    between atoms: C_7  and  C_8 
REMARK    4  A    between atoms: C_15  and  C_16 
REMARK       I    between atoms: C_16  and  N_18 
REMARK    5  A    between atoms: N_18  and  C_20 
ROOT
HETATM    1  C   UNL     1       9.123  -0.207  23.125  1.00  0.00     0.040 A 
HETATM    2  C   UNL     1      10.221  -0.659  23.681  1.00  0.00     0.065 A 
HETATM    3  C   UNL     1      11.451  -1.563  22.887  1.00  0.00    -0.006 C 
HETATM    4  C   UNL     1      12.463  -1.580  23.060  1.00  0.00    -0.025 C 
HETATM    5  C   UNL     1      13.162  -0.583  24.092  1.00  0.00     0.053 C 
HETATM    6  C   UNL     1      12.374   0.120  24.587  1.00  0.00    -0.025 C 
HETATM    7  C   UNL     1      11.214   0.279  24.492  1.00  0.00    -0.006 C 
HETATM    8  C   UNL     1       9.533  -1.350  24.418  1.00  0.00     0.049 A 
ENDROOT
BRANCH   8   9
HETATM    9  C   UNL     1       8.919  -2.116  25.325  1.00  0.00     0.255 C 
HETATM   10  O   UNL     1       8.683  -1.605  26.332  1.00  0.00    -0.268 OA
HETATM   11  N   UNL     1       8.724  -3.333  24.864  1.00  0.00    -0.321 N 
ATOM     12  HN  UNL     1       9.093  -3.606  23.953  1.00  0.00     0.169 HD
BRANCH  11  13
HETATM   13  C   UNL     1       8.092  -4.139  25.550  1.00  0.00     0.060 A 
HETATM   14  C   UNL     1       8.241  -5.019  26.500  1.00  0.00     0.117 A 
HETATM   15  N   UNL     1       7.906  -5.863  27.324  1.00  0.00    -0.373 N 
HETATM   16  C   UNL     1       6.676  -5.868  26.943  1.00  0.00     0.088 A 
ATOM     17  HN  UNL     1       8.415  -6.373  28.046  1.00  0.00     0.164 HD
HETATM   18  C   UNL     1       6.083  -5.229  26.109  1.00  0.00     0.030 A 
HETATM   19  C   UNL     1       6.477  -4.293  25.277  1.00  0.00    -0.016 A 
HETATM   20  C   UNL     1       5.791  -3.541  24.323  1.00  0.00     0.026 C 
ENDBRANCH  11  13
ENDBRANCH   8   9
BRANCH   1  21
HETATM   21  C   UNL     1       8.495   0.454  22.324  1.00  0.00    -0.022 C 
BRANCH  21  22
HETATM   22  N   UNL     1       8.154   0.941  21.282  1.00  0.00    -0.249 N 
ATOM     23  HN  UNL     1       8.630   1.810  21.041  1.00  0.00     0.188 HD
BRANCH  22  24
HETATM   24  S   UNL     1       7.046   0.438  20.180  1.00  0.00     0.233 S 
HETATM   25  C   UNL     1       5.855   1.415  20.200  1.00  0.00     0.186 C 
HETATM   26  O   UNL     1       7.655   0.446  18.861  1.00  0.00    -0.205 OA
HETATM   27  O   UNL     1       6.604  -0.901  20.500  1.00  0.00    -0.205 OA
ENDBRANCH  22  24
ENDBRANCH  21  22
ENDBRANCH   1  21
TORSDOF 5
ENDMDL
MODEL 2
REMARK VINA RESULT:    -7.168      3.441      7.533
REMARK INTER + INTRA:         -10.180
REMARK INTER:                  -9.337
REMARK INTRA:                  -0.842
REMARK UNBOUND:                -0.917
REMARK  5 active torsions:
REMARK  status: ('A' for Active; 'I' for Inactive)
REMARK    1  A    between atoms: S_2  and  N_5 
REMARK    2  A    between atoms: N_5  and  C_7 
REMARK    3  A    between atoms: C_7  and  C_8 
REMARK    4  A    between atoms: C_15  and  C_16 
REMARK       I    between atoms: C_16  and  N_18 
REMARK    5  A    between atoms: N_18  and  C_20 
ROOT
HETATM    1  C   UNL     1       7.414  -4.957  25.632  1.00  0.00     0.040 A 
HETATM    2  C   UNL     1       7.105  -4.695  24.386  1.00  0.00     0.065 A 
HETATM    3  C   UNL     1       7.621  -5.592  23.011  1.00  0.00    -0.006 C 
HETATM    4  C   UNL     1       7.137  -5.760  22.122  1.00  0.00    -0.025 C 
HETATM    5  C   UNL     1       5.629  -5.297  21.879  1.00  0.00     0.053 C 
HETATM    6  C   UNL     1       5.202  -4.765  22.825  1.00  0.00    -0.025 C 
HETATM    7  C   UNL     1       5.604  -4.514  23.900  1.00  0.00    -0.006 C 
HETATM    8  C   UNL     1       7.687  -3.626  24.494  1.00  0.00     0.049 A 
ENDROOT
BRANCH   8   9
HETATM    9  C   UNL     1       8.235  -2.407  24.474  1.00  0.00     0.255 C 
HETATM   10  O   UNL     1       7.647  -1.586  25.034  1.00  0.00    -0.268 OA
HETATM   11  N   UNL     1       9.355  -2.401  23.782  1.00  0.00    -0.321 N 
ATOM     12  HN  UNL     1       9.662  -3.239  23.288  1.00  0.00     0.169 HD
BRANCH  11  13
HETATM   13  C   UNL     1      10.028  -1.369  23.740  1.00  0.00     0.060 A 
HETATM   14  C   UNL     1      10.934  -0.707  24.403  1.00  0.00     0.117 A 
HETATM   15  N   UNL     1      11.733   0.194  24.636  1.00  0.00    -0.373 N 
HETATM   16  C   UNL     1      11.396   0.876  23.597  1.00  0.00     0.088 A 
ATOM     17  HN  UNL     1      12.414   0.347  25.380  1.00  0.00     0.164 HD
HETATM   18  C   UNL     1      10.612   0.662  22.705  1.00  0.00     0.030 A 
HETATM   19  C   UNL     1       9.807  -0.348  22.469  1.00  0.00    -0.016 A 
HETATM   20  C   UNL     1       8.912  -0.607  21.432  1.00  0.00     0.026 C 
ENDBRANCH  11  13
ENDBRANCH   8   9
BRANCH   1  21
HETATM   21  C   UNL     1       7.442  -5.649  26.629  1.00  0.00    -0.022 C 
BRANCH  21  22
HETATM   22  N   UNL     1       7.551  -5.966  27.782  1.00  0.00    -0.249 N 
ATOM     23  HN  UNL     1       8.512  -6.017  28.121  1.00  0.00     0.188 HD
BRANCH  22  24
HETATM   24  S   UNL     1       6.408  -6.331  28.902  1.00  0.00     0.233 S 
HETATM   25  C   UNL     1       5.053  -6.492  28.186  1.00  0.00     0.186 C 
HETATM   26  O   UNL     1       6.764  -7.582  29.549  1.00  0.00    -0.205 OA
HETATM   27  O   UNL     1       6.332  -5.280  29.891  1.00  0.00    -0.205 OA
ENDBRANCH  22  24
ENDBRANCH  21  22
ENDBRANCH   1  21
TORSDOF 5
ENDMDL
MODEL 3
REMARK VINA RESULT:    -6.710      2.017      2.151
REMARK INTER + INTRA:          -9.587
REMARK INTER:                  -8.694
REMARK INTRA:                  -0.894
REMARK UNBOUND:                -0.917
REMARK  5 active torsions:
REMARK  status: ('A' for Active; 'I' for Inactive)
REMARK    1  A    between atoms: S_2  and  N_5 
REMARK    2  A    between atoms: N_5  and  C_7 
REMARK    3  A    between atoms: C_7  and  C_8 
REMARK    4  A    between atoms: C_15  and  C_16 
REMARK       I    between atoms: C_16  and  N_18 
REMARK    5  A    between atoms: N_18  and  C_20 
ROOT
HETATM    1  C   UNL     1       9.167   0.254  23.602  1.00  0.00     0.040 A 
HETATM    2  C   UNL     1      10.239  -0.434  23.912  1.00  0.00     0.065 A 
HETATM    3  C   UNL     1      11.199  -1.349  22.817  1.00  0.00    -0.006 C 
HETATM    4  C   UNL     1      12.209  -1.534  22.831  1.00  0.00    -0.025 C 
HETATM    5  C   UNL     1      13.182  -0.835  23.885  1.00  0.00     0.053 C 
HETATM    6  C   UNL     1      12.586  -0.126  24.593  1.00  0.00    -0.025 C 
HETATM    7  C   UNL     1      11.463   0.205  24.698  1.00  0.00    -0.006 C 
HETATM    8  C   UNL     1       9.547  -1.139  24.631  1.00  0.00     0.049 A 
ENDROOT
BRANCH   8   9
HETATM    9  C   UNL     1       8.937  -1.958  25.494  1.00  0.00     0.255 C 
HETATM   10  O   UNL     1       8.715  -1.510  26.535  1.00  0.00    -0.268 OA
HETATM   11  N   UNL     1       8.728  -3.142  24.959  1.00  0.00    -0.321 N 
ATOM     12  HN  UNL     1       9.085  -3.358  24.028  1.00  0.00     0.169 HD
BRANCH  11  13
HETATM   13  C   UNL     1       8.096  -3.985  25.598  1.00  0.00     0.060 A 
HETATM   14  C   UNL     1       8.245  -4.907  26.508  1.00  0.00     0.117 A 
HETATM   15  N   UNL     1       7.910  -5.793  27.287  1.00  0.00    -0.373 N 
HETATM   16  C   UNL     1       6.684  -5.792  26.892  1.00  0.00     0.088 A 
ATOM     17  HN  UNL     1       8.416  -6.332  27.990  1.00  0.00     0.164 HD
HETATM   18  C   UNL     1       6.093  -5.120  26.083  1.00  0.00     0.030 A 
HETATM   19  C   UNL     1       6.486  -4.142  25.300  1.00  0.00    -0.016 A 
HETATM   20  C   UNL     1       5.803  -3.352  24.376  1.00  0.00     0.026 C 
ENDBRANCH  11  13
ENDBRANCH   8   9
BRANCH   1  21
HETATM   21  C   UNL     1       8.558   1.123  23.013  1.00  0.00    -0.022 C 
BRANCH  21  22
HETATM   22  N   UNL     1       8.311   2.178  22.498  1.00  0.00    -0.249 N 
ATOM     23  HN  UNL     1       8.512   2.221  21.498  1.00  0.00     0.188 HD
BRANCH  22  24
HETATM   24  S   UNL     1       7.704   3.563  23.136  1.00  0.00     0.233 S 
HETATM   25  C   UNL     1       8.840   4.307  23.864  1.00  0.00     0.186 C 
HETATM   26  O   UNL     1       7.194   4.395  22.060  1.00  0.00    -0.205 OA
HETATM   27  O   UNL     1       6.634   3.255  24.057  1.00  0.00    -0.205 OA
ENDBRANCH  22  24
ENDBRANCH  21  22
ENDBRANCH   1  21
TORSDOF 5
ENDMDL
MODEL 4
REMARK VINA RESULT:    -6.630     13.877     16.459
REMARK INTER + INTRA:          -9.485
REMARK INTER:                  -8.554
REMARK INTRA:                  -0.931
REMARK UNBOUND:                -0.917
REMARK  5 active torsions:
REMARK  status: ('A' for Active; 'I' for Inactive)
REMARK    1  A    between atoms: S_2  and  N_5 
REMARK    2  A    between atoms: N_5  and  C_7 
REMARK    3  A    between atoms: C_7  and  C_8 
REMARK    4  A    between atoms: C_15  and  C_16 
REMARK       I    between atoms: C_16  and  N_18 
REMARK    5  A    between atoms: N_18  and  C_20 
ROOT
HETATM    1  C   UNL     1      24.133  -2.971  23.660  1.00  0.00     0.040 A 
HETATM    2  C   UNL     1      23.368  -1.907  23.712  1.00  0.00     0.065 A 
HETATM    3  C   UNL     1      21.672  -1.901  23.998  1.00  0.00    -0.006 C 
HETATM    4  C   UNL     1      21.092  -1.199  24.473  1.00  0.00    -0.025 C 
HETATM    5  C   UNL     1      21.730   0.060  25.218  1.00  0.00     0.053 C 
HETATM    6  C   UNL     1      22.893   0.047  25.132  1.00  0.00    -0.025 C 
HETATM    7  C   UNL     1      23.691  -0.671  24.655  1.00  0.00    -0.006 C 
HETATM    8  C   UNL     1      23.647  -1.682  22.543  1.00  0.00     0.049 A 
ENDROOT
BRANCH   8   9
HETATM    9  C   UNL     1      23.900  -1.274  21.295  1.00  0.00     0.255 C 
HETATM   10  O   UNL     1      24.775  -0.531  21.180  1.00  0.00    -0.268 OA
HETATM   11  N   UNL     1      23.056  -1.813  20.441  1.00  0.00    -0.321 N 
ATOM     12  HN  UNL     1      22.286  -2.395  20.772  1.00  0.00     0.169 HD
BRANCH  11  13
HETATM   13  C   UNL     1      23.209  -1.604  19.236  1.00  0.00     0.060 A 
HETATM   14  C   UNL     1      22.912  -0.751  18.296  1.00  0.00     0.117 A 
HETATM   15  N   UNL     1      22.902  -0.266  17.170  1.00  0.00    -0.373 N 
HETATM   16  C   UNL     1      23.545  -1.252  16.648  1.00  0.00     0.088 A 
ATOM     17  HN  UNL     1      22.522   0.601  16.786  1.00  0.00     0.164 HD
HETATM   18  C   UNL     1      24.018  -2.255  17.124  1.00  0.00     0.030 A 
HETATM   19  C   UNL     1      24.047  -2.712  18.355  1.00  0.00    -0.016 A 
HETATM   20  C   UNL     1      24.608  -3.861  18.912  1.00  0.00     0.026 C 
ENDBRANCH  11  13
ENDBRANCH   8   9
BRANCH   1  21
HETATM   21  C   UNL     1      24.639  -3.977  24.113  1.00  0.00    -0.022 C 
BRANCH  21  22
HETATM   22  N   UNL     1      24.787  -4.969  24.772  1.00  0.00    -0.249 N 
ATOM     23  HN  UNL     1      25.436  -5.650  24.378  1.00  0.00     0.188 HD
BRANCH  22  24
HETATM   24  S   UNL     1      24.116  -5.409  26.204  1.00  0.00     0.233 S 
HETATM   25  C   UNL     1      24.958  -4.809  27.346  1.00  0.00     0.186 C 
HETATM   26  O   UNL     1      22.763  -4.883  26.273  1.00  0.00    -0.205 OA
HETATM   27  O   UNL     1      24.079  -6.850  26.310  1.00  0.00    -0.205 OA
ENDBRANCH  22  24
ENDBRANCH  21  22
ENDBRANCH   1  21
TORSDOF 5
ENDMDL
MODEL 5
REMARK VINA RESULT:    -6.538      5.894      8.362
REMARK INTER + INTRA:          -9.366
REMARK INTER:                  -8.627
REMARK INTRA:                  -0.738
REMARK UNBOUND:                -0.917
REMARK  5 active torsions:
REMARK  status: ('A' for Active; 'I' for Inactive)
REMARK    1  A    between atoms: S_2  and  N_5 
REMARK    2  A    between atoms: N_5  and  C_7 
REMARK    3  A    between atoms: C_7  and  C_8 
REMARK    4  A    between atoms: C_15  and  C_16 
REMARK       I    between atoms: C_16  and  N_18 
REMARK    5  A    between atoms: N_18  and  C_20 
ROOT
HETATM    1  C   UNL     1       6.071  -5.675  25.558  1.00  0.00     0.040 A 
HETATM    2  C   UNL     1       5.808  -5.269  24.339  1.00  0.00     0.065 A 
HETATM    3  C   UNL     1       5.394  -3.663  23.881  1.00  0.00    -0.006 C 
HETATM    4  C   UNL     1       5.595  -3.161  23.008  1.00  0.00    -0.025 C 
HETATM    5  C   UNL     1       6.526  -3.782  21.870  1.00  0.00     0.053 C 
HETATM    6  C   UNL     1       6.911  -4.839  22.180  1.00  0.00    -0.025 C 
HETATM    7  C   UNL     1       6.795  -5.531  23.123  1.00  0.00    -0.006 C 
HETATM    8  C   UNL     1       4.846  -6.024  24.323  1.00  0.00     0.049 A 
ENDROOT
BRANCH   8   9
HETATM    9  C   UNL     1       3.800  -6.834  24.135  1.00  0.00     0.255 C 
HETATM   10  O   UNL     1       3.762  -7.766  24.815  1.00  0.00    -0.268 OA
HETATM   11  N   UNL     1       3.022  -6.389  23.172  1.00  0.00    -0.321 N 
ATOM     12  HN  UNL     1       3.289  -5.566  22.630  1.00  0.00     0.169 HD
BRANCH  11  13
HETATM   13  C   UNL     1       1.967  -6.980  22.933  1.00  0.00     0.060 A 
HETATM   14  C   UNL     1       1.487  -7.999  22.278  1.00  0.00     0.117 A 
HETATM   15  N   UNL     1       0.639  -8.791  21.878  1.00  0.00    -0.373 N 
HETATM   16  C   UNL     1      -0.334  -8.159  22.436  1.00  0.00     0.088 A 
ATOM     17  HN  UNL     1       0.688  -9.638  21.312  1.00  0.00     0.164 HD
HETATM   18  C   UNL     1      -0.369  -7.176  23.135  1.00  0.00     0.030 A 
HETATM   19  C   UNL     1       0.578  -6.382  23.581  1.00  0.00    -0.016 A 
HETATM   20  C   UNL     1       0.543  -5.256  24.402  1.00  0.00     0.026 C 
ENDBRANCH  11  13
ENDBRANCH   8   9
BRANCH   1  21
HETATM   21  C   UNL     1       6.693  -5.675  26.600  1.00  0.00    -0.022 C 
BRANCH  21  22
HETATM   22  N   UNL     1       7.090  -6.019  27.679  1.00  0.00    -0.249 N 
ATOM     23  HN  UNL     1       8.105  -6.077  27.762  1.00  0.00     0.188 HD
BRANCH  22  24
HETATM   24  S   UNL     1       6.266  -6.413  29.043  1.00  0.00     0.233 S 
HETATM   25  C   UNL     1       4.797  -6.687  28.668  1.00  0.00     0.186 C 
HETATM   26  O   UNL     1       6.850  -7.614  29.617  1.00  0.00    -0.205 OA
HETATM   27  O   UNL     1       6.348  -5.332  29.999  1.00  0.00    -0.205 OA
ENDBRANCH  22  24
ENDBRANCH  21  22
ENDBRANCH   1  21
TORSDOF 5
ENDMDL
MODEL 6
REMARK VINA RESULT:    -6.449     13.889     16.355
REMARK INTER + INTRA:          -9.251
REMARK INTER:                  -8.505
REMARK INTRA:                  -0.746
REMARK UNBOUND:                -0.917
REMARK  5 active torsions:
REMARK  status: ('A' for Active; 'I' for Inactive)
REMARK    1  A    between atoms: S_2  and  N_5 
REMARK    2  A    between atoms: N_5  and  C_7 
REMARK    3  A    between atoms: C_7  and  C_8 
REMARK    4  A    between atoms: C_15  and  C_16 
REMARK       I    between atoms: C_16  and  N_18 
REMARK    5  A    between atoms: N_18  and  C_20 
ROOT
HETATM    1  C   UNL     1      23.482  -3.465  25.301  1.00  0.00     0.040 A 
HETATM    2  C   UNL     1      22.827  -2.332  25.376  1.00  0.00     0.065 A 
HETATM    3  C   UNL     1      23.039  -0.977  24.337  1.00  0.00    -0.006 C 
HETATM    4  C   UNL     1      22.352  -0.282  24.023  1.00  0.00    -0.025 C 
HETATM    5  C   UNL     1      20.797  -0.417  24.358  1.00  0.00     0.053 C 
HETATM    6  C   UNL     1      20.590  -1.379  24.984  1.00  0.00    -0.025 C 
HETATM    7  C   UNL     1      21.240  -2.265  25.400  1.00  0.00    -0.006 C 
HETATM    8  C   UNL     1      23.313  -2.154  26.483  1.00  0.00     0.049 A 
ENDROOT
BRANCH   8   9
HETATM    9  C   UNL     1      23.718  -1.847  27.720  1.00  0.00     0.255 C 
HETATM   10  O   UNL     1      24.036  -0.749  27.882  1.00  0.00    -0.268 OA
HETATM   11  N   UNL     1      23.681  -2.900  28.507  1.00  0.00    -0.321 N 
ATOM     12  HN  UNL     1      23.439  -3.818  28.132  1.00  0.00     0.169 HD
BRANCH  11  13
HETATM   13  C   UNL     1      23.943  -2.764  29.704  1.00  0.00     0.060 A 
HETATM   14  C   UNL     1      23.382  -2.540  30.858  1.00  0.00     0.117 A 
HETATM   15  N   UNL     1      23.315  -2.382  32.073  1.00  0.00    -0.373 N 
HETATM   16  C   UNL     1      24.591  -2.442  32.235  1.00  0.00     0.088 A 
ATOM     17  HN  UNL     1      22.535  -2.252  32.717  1.00  0.00     0.164 HD
HETATM   18  C   UNL     1      25.499  -2.634  31.464  1.00  0.00     0.030 A 
HETATM   19  C   UNL     1      25.519  -2.848  30.169  1.00  0.00    -0.016 A 
HETATM   20  C   UNL     1      26.564  -3.087  29.277  1.00  0.00     0.026 C 
ENDBRANCH  11  13
ENDBRANCH   8   9
BRANCH   1  21
HETATM   21  C   UNL     1      23.842  -4.486  24.752  1.00  0.00    -0.022 C 
BRANCH  21  22
HETATM   22  N   UNL     1      23.918  -5.649  24.467  1.00  0.00    -0.249 N 
ATOM     23  HN  UNL     1      23.295  -5.945  23.715  1.00  0.00     0.188 HD
BRANCH  22  24
HETATM   24  S   UNL     1      24.859  -6.841  25.089  1.00  0.00     0.233 S 
HETATM   25  C   UNL     1      25.100  -7.898  23.994  1.00  0.00     0.186 C 
HETATM   26  O   UNL     1      26.132  -6.272  25.499  1.00  0.00    -0.205 OA
HETATM   27  O   UNL     1      24.208  -7.440  26.231  1.00  0.00    -0.205 OA
ENDBRANCH  22  24
ENDBRANCH  21  22
ENDBRANCH   1  21
TORSDOF 5
ENDMDL
MODEL 7
REMARK VINA RESULT:    -6.384     25.012     28.022
REMARK INTER + INTRA:          -9.166
REMARK INTER:                  -8.368
REMARK INTRA:                  -0.798
REMARK UNBOUND:                -0.917
REMARK  5 active torsions:
REMARK  status: ('A' for Active; 'I' for Inactive)
REMARK    1  A    between atoms: S_2  and  N_5 
REMARK    2  A    between atoms: N_5  and  C_7 
REMARK    3  A    between atoms: C_7  and  C_8 
REMARK    4  A    between atoms: C_15  and  C_16 
REMARK       I    between atoms: C_16  and  N_18 
REMARK    5  A    between atoms: N_18  and  C_20 
ROOT
HETATM    1  C   UNL     1       8.385  15.323   2.201  1.00  0.00     0.040 A 
HETATM    2  C   UNL     1       8.516  16.618   2.044  1.00  0.00     0.065 A 
HETATM    3  C   UNL     1       9.061  17.408   0.616  1.00  0.00    -0.006 C 
HETATM    4  C   UNL     1       8.800  18.326   0.238  1.00  0.00    -0.025 C 
HETATM    5  C   UNL     1       7.640  19.209   0.886  1.00  0.00     0.053 C 
HETATM    6  C   UNL     1       7.172  18.668   1.807  1.00  0.00    -0.025 C 
HETATM    7  C   UNL     1       7.335  17.636   2.346  1.00  0.00    -0.006 C 
HETATM    8  C   UNL     1       9.359  16.614   2.928  1.00  0.00     0.049 A 
ENDROOT
BRANCH   8   9
HETATM    9  C   UNL     1      10.253  16.778   3.909  1.00  0.00     0.255 C 
HETATM   10  O   UNL     1      11.010  15.917   4.043  1.00  0.00    -0.268 OA
HETATM   11  N   UNL     1      10.061  17.916   4.541  1.00  0.00    -0.321 N 
ATOM     12  HN  UNL     1       9.263  18.508   4.308  1.00  0.00     0.169 HD
BRANCH  11  13
HETATM   13  C   UNL     1      10.857  18.256   5.418  1.00  0.00     0.060 A 
HETATM   14  C   UNL     1      11.116  18.099   6.686  1.00  0.00     0.117 A 
HETATM   15  N   UNL     1      11.726  18.231   7.741  1.00  0.00    -0.373 N 
HETATM   16  C   UNL     1      12.575  19.062   7.243  1.00  0.00     0.088 A 
ATOM     17  HN  UNL     1      11.606  17.831   8.672  1.00  0.00     0.164 HD
HETATM   18  C   UNL     1      12.725  19.498   6.128  1.00  0.00     0.030 A 
HETATM   19  C   UNL     1      12.071  19.288   5.009  1.00  0.00    -0.016 A 
HETATM   20  C   UNL     1      12.251  19.776   3.715  1.00  0.00     0.026 C 
ENDBRANCH  11  13
ENDBRANCH   8   9
BRANCH   1  21
HETATM   21  C   UNL     1       7.928  14.230   1.936  1.00  0.00    -0.022 C 
BRANCH  21  22
HETATM   22  N   UNL     1       7.713  13.051   1.996  1.00  0.00    -0.249 N 
ATOM     23  HN  UNL     1       7.670  12.580   1.092  1.00  0.00     0.188 HD
BRANCH  22  24
HETATM   24  S   UNL     1       7.477  12.072   3.292  1.00  0.00     0.233 S 
HETATM   25  C   UNL     1       6.397  12.702   4.192  1.00  0.00     0.186 C 
HETATM   26  O   UNL     1       7.021  10.773   2.826  1.00  0.00    -0.205 OA
HETATM   27  O   UNL     1       8.713  11.915   4.024  1.00  0.00    -0.205 OA
ENDBRANCH  22  24
ENDBRANCH  21  22
ENDBRANCH   1  21
TORSDOF 5
ENDMDL
MODEL 8
REMARK VINA RESULT:    -6.217     24.493     27.374
REMARK INTER + INTRA:          -8.951
REMARK INTER:                  -8.114
REMARK INTRA:                  -0.836
REMARK UNBOUND:                -0.917
REMARK  5 active torsions:
REMARK  status: ('A' for Active; 'I' for Inactive)
REMARK    1  A    between atoms: S_2  and  N_5 
REMARK    2  A    between atoms: N_5  and  C_7 
REMARK    3  A    between atoms: C_7  and  C_8 
REMARK    4  A    between atoms: C_15  and  C_16 
REMARK       I    between atoms: C_16  and  N_18 
REMARK    5  A    between atoms: N_18  and  C_20 
ROOT
HETATM    1  C   UNL     1       9.508  16.577   3.874  1.00  0.00     0.040 A 
HETATM    2  C   UNL     1       8.607  16.809   2.951  1.00  0.00     0.065 A 
HETATM    3  C   UNL     1       7.553  18.167   2.892  1.00  0.00    -0.006 C 
HETATM    4  C   UNL     1       7.166  18.659   2.078  1.00  0.00    -0.025 C 
HETATM    5  C   UNL     1       7.615  18.310   0.587  1.00  0.00     0.053 C 
HETATM    6  C   UNL     1       8.406  17.453   0.582  1.00  0.00    -0.025 C 
HETATM    7  C   UNL     1       8.955  16.813   1.401  1.00  0.00    -0.006 C 
HETATM    8  C   UNL     1       8.033  15.785   3.291  1.00  0.00     0.049 A 
ENDROOT
BRANCH   8   9
HETATM    9  C   UNL     1       7.327  14.671   3.511  1.00  0.00     0.255 C 
HETATM   10  O   UNL     1       6.276  14.827   3.963  1.00  0.00    -0.268 OA
HETATM   11  N   UNL     1       8.011  13.600   3.170  1.00  0.00    -0.321 N 
ATOM     12  HN  UNL     1       8.979  13.683   2.858  1.00  0.00     0.169 HD
BRANCH  11  13
HETATM   13  C   UNL     1       7.466  12.496   3.232  1.00  0.00     0.060 A 
HETATM   14  C   UNL     1       7.273  11.491   4.038  1.00  0.00     0.117 A 
HETATM   15  N   UNL     1       6.840  10.405   4.411  1.00  0.00    -0.373 N 
HETATM   16  C   UNL     1       6.311  10.130   3.269  1.00  0.00     0.088 A 
ATOM     17  HN  UNL     1       6.884   9.904   5.299  1.00  0.00     0.164 HD
HETATM   18  C   UNL     1       6.238  10.752   2.238  1.00  0.00     0.030 A 
HETATM   19  C   UNL     1       6.678  11.942   1.898  1.00  0.00    -0.016 A 
HETATM   20  C   UNL     1       6.581  12.671   0.714  1.00  0.00     0.026 C 
ENDBRANCH  11  13
ENDBRANCH   8   9
BRANCH   1  21
HETATM   21  C   UNL     1      10.503  16.835   4.519  1.00  0.00    -0.022 C 
BRANCH  21  22
HETATM   22  N   UNL     1      11.542  17.344   4.839  1.00  0.00    -0.249 N 
ATOM     23  HN  UNL     1      12.236  16.697   5.213  1.00  0.00     0.188 HD
BRANCH  22  24
HETATM   24  S   UNL     1      12.029  18.910   4.772  1.00  0.00     0.233 S 
HETATM   25  C   UNL     1      12.906  19.204   6.004  1.00  0.00     0.186 C 
HETATM   26  O   UNL     1      12.812  19.110   3.564  1.00  0.00    -0.205 OA
HETATM   27  O   UNL     1      10.879  19.785   4.753  1.00  0.00    -0.205 OA
ENDBRANCH  22  24
ENDBRANCH  21  22
ENDBRANCH   1  21
TORSDOF 5
ENDMDL
MODEL 9
REMARK VINA RESULT:    -6.034      4.372      7.076
REMARK INTER + INTRA:          -8.714
REMARK INTER:                  -7.999
REMARK INTRA:                  -0.715
REMARK UNBOUND:                -0.917
REMARK  5 active torsions:
REMARK  status: ('A' for Active; 'I' for Inactive)
REMARK    1  A    between atoms: S_2  and  N_5 
REMARK    2  A    between atoms: N_5  and  C_7 
REMARK    3  A    between atoms: C_7  and  C_8 
REMARK    4  A    between atoms: C_15  and  C_16 
REMARK       I    between atoms: C_16  and  N_18 
REMARK    5  A    between atoms: N_18  and  C_20 
ROOT
HETATM    1  C   UNL     1       7.084  -4.773  25.613  1.00  0.00     0.040 A 
HETATM    2  C   UNL     1       7.125  -3.771  24.769  1.00  0.00     0.065 A 
HETATM    3  C   UNL     1       7.105  -2.102  25.187  1.00  0.00    -0.006 C 
HETATM    4  C   UNL     1       7.549  -1.305  24.715  1.00  0.00    -0.025 C 
HETATM    5  C   UNL     1       8.539  -1.499  23.479  1.00  0.00     0.053 C 
HETATM    6  C   UNL     1       8.660  -2.629  23.217  1.00  0.00    -0.025 C 
HETATM    7  C   UNL     1       8.250  -3.640  23.655  1.00  0.00    -0.006 C 
HETATM    8  C   UNL     1       6.060  -4.151  24.306  1.00  0.00     0.049 A 
ENDROOT
BRANCH   8   9
HETATM    9  C   UNL     1       4.933  -4.472  23.662  1.00  0.00     0.255 C 
HETATM   10  O   UNL     1       4.823  -4.033  22.600  1.00  0.00    -0.268 OA
HETATM   11  N   UNL     1       4.160  -5.231  24.408  1.00  0.00    -0.321 N 
ATOM     12  HN  UNL     1       4.417  -5.441  25.373  1.00  0.00     0.169 HD
BRANCH  11  13
HETATM   13  C   UNL     1       3.119  -5.684  23.926  1.00  0.00     0.060 A 
HETATM   14  C   UNL     1       2.679  -6.609  23.120  1.00  0.00     0.117 A 
HETATM   15  N   UNL     1       1.854  -7.277  22.508  1.00  0.00    -0.373 N 
HETATM   16  C   UNL     1       0.857  -6.565  22.907  1.00  0.00     0.088 A 
ATOM     17  HN  UNL     1       1.928  -8.096  21.904  1.00  0.00     0.164 HD
HETATM   18  C   UNL     1       0.783  -5.620  23.653  1.00  0.00     0.030 A 
HETATM   19  C   UNL     1       1.697  -4.963  24.330  1.00  0.00    -0.016 A 
HETATM   20  C   UNL     1       1.614  -3.880  25.205  1.00  0.00     0.026 C 
ENDBRANCH  11  13
ENDBRANCH   8   9
BRANCH   1  21
HETATM   21  C   UNL     1       7.498  -5.441  26.538  1.00  0.00    -0.022 C 
BRANCH  21  22
HETATM   22  N   UNL     1       7.543  -5.988  27.605  1.00  0.00    -0.249 N 
ATOM     23  HN  UNL     1       8.468  -6.323  27.874  1.00  0.00     0.188 HD
BRANCH  22  24
HETATM   24  S   UNL     1       6.359  -6.285  28.703  1.00  0.00     0.233 S 
HETATM   25  C   UNL     1       5.018  -6.414  27.956  1.00  0.00     0.186 C 
HETATM   26  O   UNL     1       6.653  -7.533  29.388  1.00  0.00    -0.205 OA
HETATM   27  O   UNL     1       6.297  -5.209  29.666  1.00  0.00    -0.205 OA
ENDBRANCH  22  24
ENDBRANCH  21  22
ENDBRANCH   1  21
TORSDOF 5
ENDMDL
