REMARK  5 active torsions:
REMARK  status: ('A' for Active; 'I' for Inactive)
REMARK    1  A    between atoms: S_2  and  N_5 
REMARK    2  A    between atoms: N_5  and  C_7 
REMARK    3  A    between atoms: C_7  and  C_8 
REMARK    4  A    between atoms: C_15  and  C_16 
REMARK       I    between atoms: C_16  and  N_18 
REMARK    5  A    between atoms: N_18  and  C_20 
ROOT
HETATM    1  C   UNL     1       9.432  -1.966  23.501  1.00  0.00     0.040 A 
HETATM    2  C   UNL     1      10.410  -1.144  23.207  1.00  0.00     0.065 A 
HETATM    3  C   UNL     1      11.127  -0.008  24.282  1.00  0.00    -0.006 C 
HETATM    4  C   UNL     1      12.095   0.332  24.322  1.00  0.00    -0.025 C 
HETATM    5  C   UNL     1      13.246  -0.283  23.404  1.00  0.00     0.053 C 
HETATM    6  C   UNL     1      12.824  -1.129  22.721  1.00  0.00    -0.025 C 
HETATM    7  C   UNL     1      11.777  -1.640  22.568  1.00  0.00    -0.006 C 
HETATM    8  C   UNL     1       9.681  -0.613  22.382  1.00  0.00     0.049 A 
ENDROOT
BRANCH   8   9
HETATM    9  C   UNL     1       9.027   0.031  21.410  1.00  0.00     0.255 C 
HETATM   10  O   UNL     1       9.547   0.977  21.001  1.00  0.00    -0.268 OA
HETATM   11  N   UNL     1       7.886  -0.562  21.132  1.00  0.00    -0.321 N 
ATOM     12  HN  UNL     1       7.571  -1.361  21.683  1.00  0.00     0.169 HD
BRANCH  11  13
HETATM   13  C   UNL     1       7.203  -0.139  20.197  1.00  0.00     0.060 A 
HETATM   14  C   UNL     1       7.201  -0.020  18.899  1.00  0.00     0.117 A 
HETATM   15  N   UNL     1       6.768   0.274  17.790  1.00  0.00    -0.373 N 
HETATM   16  C   UNL     1       5.704   0.827  18.260  1.00  0.00     0.088 A 
ATOM     17  HN  UNL     1       7.121   0.133  16.843  1.00  0.00     0.164 HD
HETATM   18  C   UNL     1       5.284   0.953  19.384  1.00  0.00     0.030 A 
HETATM   19  C   UNL     1       5.763   0.575  20.547  1.00  0.00    -0.016 A 
HETATM   20  C   UNL     1       5.273   0.704  21.846  1.00  0.00     0.026 C 
ENDBRANCH  11  13
ENDBRANCH   8   9
BRANCH   1  21
HETATM   21  C   UNL     1       8.915  -2.873  24.120  1.00  0.00    -0.022 C 
BRANCH  21  22
HETATM   22  N   UNL     1       8.074  -3.534  24.664  1.00  0.00    -0.249 N 
ATOM     23  HN  UNL     1       7.198  -3.618  24.148  1.00  0.00     0.188 HD
BRANCH  22  24
HETATM   24  S   UNL     1       8.102  -4.325  26.102  1.00  0.00     0.233 S 
HETATM   25  C   UNL     1       6.681  -4.834  26.410  1.00  0.00     0.186 C 
HETATM   26  O   UNL     1       9.009  -5.456  26.001  1.00  0.00    -0.205 OA
HETATM   27  O   UNL     1       8.555  -3.435  27.147  1.00  0.00    -0.205 OA
ENDBRANCH  22  24
ENDBRANCH  21  22
ENDBRANCH   1  21
TORSDOF 5
