stable:False satoms:6 tatoms:24 sratio:0.25
  -OEChem-07092417453D

 24 26  0     1  0  0  0  0  0999 V2000
    6.6811   -4.8341   26.4102 C   0  0  0  0  0  0  0  0  0  0  0  0
    8.1025   -4.3249   26.1021 S   0  0  0  0  0  0  0  0  0  0  0  0
    9.0090   -5.4563   26.0006 O   0  0  0  0  0  0  0  0  0  0  0  0
    8.5551   -3.4348   27.1469 O   0  0  0  0  0  0  0  0  0  0  0  0
    8.0743   -3.5337   24.6644 N   0  0  0  0  0  0  0  0  0  0  0  0
    8.9146   -2.8733   24.1200 C   0  0  0  0  0  0  0  0  0  0  0  0
    9.4322   -1.9655   23.5009 C   0  0  0  0  0  0  0  0  0  0  0  0
   10.4096   -1.1442   23.2075 C   0  0  1  0  0  0  0  0  0  0  0  0
   11.1265   -0.0083   24.2824 C   0  0  0  0  0  0  0  0  0  0  0  0
   12.0952    0.3315   24.3216 C   0  0  0  0  0  0  0  0  0  0  0  0
   13.2460   -0.2830   23.4041 C   0  0  0  0  0  0  0  0  0  0  0  0
   12.8244   -1.1290   22.7211 C   0  0  0  0  0  0  0  0  0  0  0  0
   11.7771   -1.6399   22.5680 C   0  0  0  0  0  0  0  0  0  0  0  0
    9.6806   -0.6126   22.3820 C   0  0  1  0  0  0  0  0  0  0  0  0
    9.0273    0.0306   21.4095 C   0  0  0  0  0  0  0  0  0  0  0  0
    9.5467    0.9768   21.0014 O   0  0  0  0  0  0  0  0  0  0  0  0
    7.8860   -0.5623   21.1318 N   0  0  0  0  0  0  0  0  0  0  0  0
    7.2026   -0.1385   20.1965 C   0  0  0  0  0  0  0  0  0  0  0  0
    7.2009   -0.0200   18.8990 C   0  0  0  0  0  0  0  0  0  0  0  0
    6.7681    0.2736   17.7902 N   0  0  0  0  0  0  0  0  0  0  0  0
    5.7043    0.8265   18.2600 C   0  0  0  0  0  0  0  0  0  0  0  0
    5.2836    0.9526   19.3838 C   0  0  0  0  0  0  0  0  0  0  0  0
    5.7630    0.5746   20.5470 C   0  0  0  0  0  0  0  0  0  0  0  0
    5.2730    0.7040   21.8455 C   0  0  0  0  0  0  0  0  0  0  0  0
 20 21  2  0  0  0  0
 19 20  1  0  0  0  0
 21 22  1  0  0  0  0
 18 19  2  0  0  0  0
 22 23  2  0  0  0  0
 18 23  1  0  0  0  0
 17 18  1  0  0  0  0
 23 24  1  0  0  0  0
 15 16  2  0  0  0  0
 15 17  1  0  0  0  0
 14 15  1  0  0  0  0
  8 14  1  0  0  0  0
  7 14  1  0  0  0  0
 12 13  1  0  0  0  0
  8 13  1  0  0  0  0
 11 12  2  0  0  0  0
  7  8  1  0  0  0  0
  8  9  1  0  0  0  0
 10 11  1  0  0  0  0
  6  7  2  0  0  0  0
  5  6  1  0  0  0  0
  9 10  2  0  0  0  0
  2  5  1  0  0  0  0
  2  3  2  0  0  0  0
  1  2  1  0  0  0  0
  2  4  2  0  0  0  0
M  END
> <Shapegauss>
-288.345612

$$$$
