stable:False satoms:9 tatoms:24 sratio:0.375
  -OEChem-07092417453D

 24 25  0     1  0  0  0  0  0999 V2000
    6.6217   -4.8806   26.4914 C   0  0  0  0  0  0  0  0  0  0  0  0
    8.2661   -4.3021   26.1195 S   0  0  0  0  0  0  0  0  0  0  0  0
    9.1380   -5.4498   26.0594 O   0  0  0  0  0  0  0  0  0  0  0  0
    8.6216   -3.4065   27.1665 O   0  0  0  0  0  0  0  0  0  0  0  0
    8.0970   -3.5565   24.7047 N   0  0  0  0  0  0  0  0  0  0  0  0
    8.9550   -2.9019   24.1508 C   0  0  0  0  0  0  0  0  0  0  0  0
    9.4363   -1.9709   23.5517 C   0  0  0  0  0  0  0  0  0  0  0  0
   10.3350   -1.1332   23.2557 C   0  0  1  0  0  0  0  0  0  0  0  0
   11.0688   -0.0231   24.2590 C   0  0  0  0  0  0  0  0  0  0  0  0
   12.1094    0.2831   24.2081 C   0  0  0  0  0  0  0  0  0  0  0  0
   13.1707   -0.1405   23.4736 C   0  0  0  0  0  0  0  0  0  0  0  0
   12.7417   -1.2661   22.6464 C   0  0  0  0  0  0  0  0  0  0  0  0
   11.7599   -1.7036   22.5503 C   0  0  0  0  0  0  0  0  0  0  0  0
    9.7154   -0.5515   22.3193 C   0  0  0  0  0  0  0  0  0  0  0  0
    9.0511    0.0451   21.3813 C   0  0  0  0  0  0  0  0  0  0  0  0
    9.5515    0.9667   20.9441 O   0  0  0  0  0  0  0  0  0  0  0  0
    7.8662   -0.5603   21.1267 N   0  0  0  0  0  0  0  0  0  0  0  0
    7.1574   -0.1060   20.1981 C   0  0  0  0  0  0  0  0  0  0  0  0
    7.2219    0.0019   18.8745 C   0  0  0  0  0  0  0  0  0  0  0  0
    6.7541    0.3282   17.7772 N   0  0  0  0  0  0  0  0  0  0  0  0
    5.6089    0.8824   18.2317 C   0  0  0  0  0  0  0  0  0  0  0  0
    5.2466    0.9636   19.3798 C   0  0  0  0  0  0  0  0  0  0  0  0
    5.7750    0.5414   20.5653 C   0  0  0  0  0  0  0  0  0  0  0  0
    5.3147    0.6502   21.8615 C   0  0  0  0  0  0  0  0  0  0  0  0
 20 21  2  0  0  0  0
 19 20  1  0  0  0  0
 21 22  1  0  0  0  0
 18 19  2  0  0  0  0
 22 23  2  0  0  0  0
 18 23  1  0  0  0  0
 17 18  1  0  0  0  0
 23 24  1  0  0  0  0
 15 16  2  0  0  0  0
 15 17  1  0  0  0  0
 14 15  1  0  0  0  0
  8 14  1  0  0  0  0
 12 13  1  0  0  0  0
  8 13  1  0  0  0  0
 11 12  2  0  0  0  0
  7  8  1  0  0  0  0
  8  9  1  0  0  0  0
 10 11  1  0  0  0  0
  6  7  3  0  0  0  0
  5  6  1  0  0  0  0
  9 10  2  0  0  0  0
  2  5  1  0  0  0  0
  2  3  2  0  0  0  0
  1  2  1  0  0  0  0
  2  4  2  0  0  0  0
M  END
> <Shapegauss>
-285.983856

$$$$
