stable:False satoms:9 tatoms:24 sratio:0.375
  -OEChem-08062414073D

 43 44  0     1  0  0  0  0  0999 V2000
   -6.4427   -5.1137  -26.2716 C   0  0  0  0  0  0  0  0  0  0  0  0
   -8.0947   -4.4866  -26.0375 S   0  0  0  0  0  0  0  0  0  0  0  0
   -8.9944   -5.6131  -25.9856 O   0  0  0  0  0  0  0  0  0  0  0  0
   -8.3593   -3.6331  -27.1448 O   0  0  0  0  0  0  0  0  0  0  0  0
   -8.0033   -3.6806  -24.6490 N   0  0  0  0  0  0  0  0  0  0  0  0
   -8.8812   -2.9846  -24.1838 C   0  0  0  0  0  0  0  0  0  0  0  0
   -9.3801   -2.0179  -23.6604 C   0  0  0  0  0  0  0  0  0  0  0  0
  -10.2773   -1.1501  -23.4632 C   0  0  1  0  0  0  0  0  0  0  0  0
  -10.9174   -0.0728  -24.5620 C   0  0  0  0  0  0  0  0  0  0  0  0
  -11.9518    0.2557  -24.5950 C   0  0  0  0  0  0  0  0  0  0  0  0
  -13.0690   -0.1129  -23.9158 C   0  0  0  0  0  0  0  0  0  0  0  0
  -12.7216   -1.2077  -23.0125 C   0  0  0  0  0  0  0  0  0  0  0  0
  -11.7585   -1.6595  -22.8310 C   0  0  0  0  0  0  0  0  0  0  0  0
   -9.7084   -0.5384  -22.5138 C   0  0  0  0  0  0  0  0  0  0  0  0
   -9.0946    0.0873  -21.5605 C   0  0  0  0  0  0  0  0  0  0  0  0
   -9.6020    1.0376  -21.1993 O   0  0  0  0  0  0  0  0  0  0  0  0
   -7.9433   -0.5290  -21.1999 N   0  0  0  0  0  0  0  0  0  0  0  0
   -7.2878   -0.0467  -20.2466 C   0  0  0  0  0  0  0  0  0  0  0  0
   -7.4378    0.1229  -18.9365 C   0  0  0  0  0  0  0  0  0  0  0  0
   -7.0368    0.4898  -17.8256 N   0  0  0  0  0  0  0  0  0  0  0  0
   -5.8516    1.0000  -18.2259 C   0  0  0  0  0  0  0  0  0  0  0  0
   -5.4119    1.0215  -19.3494 C   0  0  0  0  0  0  0  0  0  0  0  0
   -5.8697    0.5560  -20.5480 C   0  0  0  0  0  0  0  0  0  0  0  0
   -5.3218    0.5963  -21.8137 C   0  0  0  0  0  0  0  0  0  0  0  0
   -6.3975   -5.6889  -27.2081 H   0  0  0  0  0  0  0  0  0  0  0  0
   -5.7354   -4.2729  -26.3233 H   0  0  0  0  0  0  0  0  0  0  0  0
   -6.1754   -5.7663  -25.4274 H   0  0  0  0  0  0  0  0  0  0  0  0
   -7.2098   -3.0793  -24.7430 H   0  0  0  0  0  0  0  0  0  0  0  0
  -10.2461    0.3330  -25.3043 H   0  0  0  0  0  0  0  0  0  0  0  0
  -12.1294    1.0381  -25.3181 H   0  0  0  0  0  0  0  0  0  0  0  0
  -14.0485    0.3286  -24.0250 H   0  0  0  0  0  0  0  0  0  0  0  0
  -13.5433   -1.6225  -22.4476 H   0  0  0  0  0  0  0  0  0  0  0  0
  -11.6293   -1.6296  -21.7390 H   0  0  0  0  0  0  0  0  0  0  0  0
  -11.8659   -2.7040  -23.1590 H   0  0  0  0  0  0  0  0  0  0  0  0
  -10.0375   -1.3131  -21.8056 H   0  0  0  0  0  0  0  0  0  0  0  0
  -10.4645    0.2590  -22.5625 H   0  0  0  0  0  0  0  0  0  0  0  0
   -7.6253   -1.3460  -21.6809 H   0  0  0  0  0  0  0  0  0  0  0  0
   -8.4280   -0.2603  -18.7390 H   0  0  0  0  0  0  0  0  0  0  0  0
   -5.2306    1.4358  -17.4572 H   0  0  0  0  0  0  0  0  0  0  0  0
   -4.4531    1.5133  -19.4219 H   0  0  0  0  0  0  0  0  0  0  0  0
   -4.7302   -0.3147  -21.9869 H   0  0  0  0  0  0  0  0  0  0  0  0
   -6.1275    0.6576  -22.5601 H   0  0  0  0  0  0  0  0  0  0  0  0
   -4.6710    1.4786  -21.9034 H   0  0  0  0  0  0  0  0  0  0  0  0
 20 21  2  0  0  0  0
 19 20  1  0  0  0  0
 21 22  1  0  0  0  0
 18 19  2  0  0  0  0
 22 23  2  0  0  0  0
 18 23  1  0  0  0  0
 17 18  1  0  0  0  0
 23 24  1  0  0  0  0
 15 16  2  0  0  0  0
 15 17  1  0  0  0  0
 14 15  1  0  0  0  0
  8 14  1  0  0  0  0
 12 13  1  0  0  0  0
  8 13  1  0  0  0  0
 11 12  2  0  0  0  0
  7  8  1  0  0  0  0
  8  9  1  0  0  0  0
 10 11  1  0  0  0  0
  6  7  3  0  0  0  0
  5  6  1  0  0  0  0
  9 10  2  0  0  0  0
  2  5  1  0  0  0  0
  2  3  2  0  0  0  0
  1  2  1  0  0  0  0
  2  4  2  0  0  0  0
  1 25  1  0  0  0  0
  1 26  1  0  0  0  0
  1 27  1  0  0  0  0
  5 28  1  0  0  0  0
  9 29  1  0  0  0  0
 10 30  1  0  0  0  0
 11 31  1  0  0  0  0
 12 32  1  0  0  0  0
 13 33  1  0  0  0  0
 13 34  1  0  0  0  0
 14 35  1  0  0  0  0
 14 36  1  0  0  0  0
 17 37  1  0  0  0  0
 19 38  1  0  0  0  0
 21 39  1  0  0  0  0
 22 40  1  0  0  0  0
 24 41  1  0  0  0  0
 24 42  1  0  0  0  0
 24 43  1  0  0  0  0
M  END
> <Chemgauss4>
-13.329875

$$$$
