
 OpenBabel07202414173D

 39 42  0  0  1  0  0  0  0  0999 V2000
   11.9349    2.6349   -1.8982 Cl  0  0  0  0  0  0  0  0  0  0  0  0
   10.5285    1.8912   -1.2264 C   0  0  0  0  0  0  0  0  0  0  0  0
   10.2819    0.5552   -1.5519 C   0  0  0  0  0  0  0  0  0  0  0  0
    9.1879   -0.1111   -1.0004 C   0  0  0  0  0  0  0  0  0  0  0  0
    8.3301    0.5479   -0.1136 C   0  0  0  0  0  0  0  0  0  0  0  0
    8.5643    1.8981    0.1884 C   0  0  0  0  0  0  0  0  0  0  0  0
    9.6589    2.5689   -0.3664 C   0  0  0  0  0  0  0  0  0  0  0  0
    9.8858    4.2246    0.0666 Cl  0  0  0  0  0  0  0  0  0  0  0  0
    7.2106   -0.2032    0.5780 C   0  0  3  0  0  0  0  0  0  0  0  0
    7.5484   -0.6189    2.0337 C   0  0  0  0  0  0  0  0  0  0  0  0
    6.6543   -0.7457    2.8656 O   0  0  0  0  0  0  0  0  0  0  0  0
    8.8861   -0.8917    2.2493 N   0  0  0  0  0  0  0  0  0  0  0  0
    9.5519   -1.1792    3.4690 C   0  0  0  0  0  0  0  0  0  0  0  0
    8.9039   -1.2615    4.6948 C   0  0  0  0  0  0  0  0  0  0  0  0
    9.5529   -1.1804    5.8800 N   0  0  0  0  0  0  0  0  0  0  0  0
   10.8994   -1.1574    5.8344 C   0  0  0  0  0  0  0  0  0  0  0  0
   11.6625   -1.3747    4.6754 C   0  0  0  0  0  0  0  0  0  0  0  0
   13.0361   -1.6356    4.7320 C   0  0  0  0  0  0  0  0  0  0  0  0
   13.7807   -1.8157    3.5561 C   0  0  0  0  0  0  0  0  0  0  0  0
   13.1449   -1.6704    2.3342 C   0  0  0  0  0  0  0  0  0  0  0  0
   11.7721   -1.4263    2.2658 C   0  0  0  0  0  0  0  0  0  0  0  0
   10.9682   -1.3201    3.4516 C   0  0  0  0  0  0  0  0  0  0  0  0
    6.8314   -1.4044   -0.2846 C   0  0  0  0  0  0  0  0  0  0  0  0
    8.0724   -2.1933   -0.6693 C   0  0  0  0  0  0  0  0  0  0  0  0
    9.0439   -1.4170   -1.3754 O   0  0  0  0  0  0  0  0  0  0  0  0
   10.9477    0.0234   -2.2281 H   0  0  0  0  0  0  0  0  0  0  0  0
    7.8977    2.4251    0.8697 H   0  0  0  0  0  0  0  0  0  0  0  0
    6.3390    0.4629    0.6390 H   0  0  0  0  0  0  0  0  0  0  0  0
    9.5127   -0.6317    1.5081 H   0  0  0  0  0  0  0  0  0  0  0  0
    7.8277   -1.3675    4.7878 H   0  0  0  0  0  0  0  0  0  0  0  0
   11.3826   -0.9234    6.7804 H   0  0  0  0  0  0  0  0  0  0  0  0
   13.5345   -1.7696    5.6915 H   0  0  0  0  0  0  0  0  0  0  0  0
   14.8289   -2.0750    3.6103 H   0  0  0  0  0  0  0  0  0  0  0  0
   13.7171   -1.7765    1.4122 H   0  0  0  0  0  0  0  0  0  0  0  0
   11.3298   -1.3779    1.2864 H   0  0  0  0  0  0  0  0  0  0  0  0
    6.3580   -1.0357   -1.2049 H   0  0  0  0  0  0  0  0  0  0  0  0
    6.1081   -2.0510    0.2222 H   0  0  0  0  0  0  0  0  0  0  0  0
    7.7838   -3.0189   -1.3292 H   0  0  0  0  0  0  0  0  0  0  0  0
    8.5571   -2.6451    0.2028 H   0  0  0  0  0  0  0  0  0  0  0  0
  1  2  1  0  0  0  0
  2  3  1  0  0  0  0
  2  7  2  0  0  0  0
  3  4  2  0  0  0  0
  3 26  1  0  0  0  0
  4  5  1  0  0  0  0
  4 25  1  0  0  0  0
  5  6  2  0  0  0  0
  5  9  1  0  0  0  0
  6  7  1  0  0  0  0
  6 27  1  0  0  0  0
  7  8  1  0  0  0  0
  9 10  1  0  0  0  0
  9 23  1  0  0  0  0
  9 28  1  0  0  0  0
 10 11  2  0  0  0  0
 10 12  1  0  0  0  0
 12 13  1  0  0  0  0
 12 29  1  0  0  0  0
 13 14  1  0  0  0  0
 13 22  2  0  0  0  0
 14 15  2  0  0  0  0
 14 30  1  0  0  0  0
 15 16  1  0  0  0  0
 16 17  2  0  0  0  0
 16 31  1  0  0  0  0
 17 18  1  0  0  0  0
 17 22  1  0  0  0  0
 18 19  2  0  0  0  0
 18 32  1  0  0  0  0
 19 20  1  0  0  0  0
 19 33  1  0  0  0  0
 20 21  2  0  0  0  0
 20 34  1  0  0  0  0
 21 22  1  0  0  0  0
 21 35  1  0  0  0  0
 23 24  1  0  0  0  0
 23 36  1  0  0  0  0
 23 37  1  0  0  0  0
 24 25  1  0  0  0  0
 24 38  1  0  0  0  0
 24 39  1  0  0  0  0
M  END
$$$$
