REMARK  11 active torsions:
REMARK  status: ('A' for Active; 'I' for Inactive)
REMARK    1  A    between atoms: S_2  and  N_5 
REMARK    2  A    between atoms: N_5  and  C_7 
REMARK    3  A    between atoms: C_7  and  C_8 
REMARK    4  A    between atoms: C_8  and  C_9 
REMARK    5  A    between atoms: C_9  and  C_15 
REMARK    6  A    between atoms: C_9  and  C_10 
REMARK    7  A    between atoms: C_10  and  C_11 
REMARK    8  A    between atoms: C_11  and  C_12 
REMARK    9  A    between atoms: C_12  and  C_13 
REMARK   10  A    between atoms: C_15  and  C_16 
REMARK       I    between atoms: C_16  and  N_18 
REMARK   11  A    between atoms: N_18  and  C_20 
ROOT
HETATM    1  C   UNL     1      10.292  -1.107  23.269  1.00  0.00     0.108 C 
ENDROOT
BRANCH   1   2
HETATM    2  C   UNL     1       9.402  -1.991  23.537  1.00  0.00     0.011 C 
BRANCH   2   3
HETATM    3  C   UNL     1       8.920  -2.899  24.185  1.00  0.00     0.097 C 
BRANCH   3   4
HETATM    4  N   UNL     1       8.091  -3.493  24.706  1.00  0.00    -0.296 N 
ATOM      5  HN  UNL     1       7.187  -3.505  24.234  1.00  0.00     0.177 HD
BRANCH   4   6
HETATM    6  S   UNL     1       8.177  -4.336  26.131  1.00  0.00     0.226 S 
HETATM    7  C   UNL     1       6.757  -4.760  26.398  1.00  0.00     0.186 C 
HETATM    8  O   UNL     1       9.052  -5.481  26.012  1.00  0.00    -0.206 OA
HETATM    9  O   UNL     1       8.641  -3.434  27.165  1.00  0.00    -0.206 OA
ENDBRANCH   4   6
ENDBRANCH   3   4
ENDBRANCH   2   3
ENDBRANCH   1   2
BRANCH   1  10
HETATM   10  C   UNL     1       9.693  -0.625  22.367  1.00  0.00    -0.071 C 
BRANCH  10  11
HETATM   11  C   UNL     1       9.054   0.065  21.368  1.00  0.00     0.289 C 
HETATM   12  O   UNL     1       9.555   1.011  20.939  1.00  0.00    -0.259 OA
HETATM   13  N   UNL     1       7.909  -0.530  21.109  1.00  0.00    -0.314 N 
ATOM     14  HN  UNL     1       7.619  -1.350  21.642  1.00  0.00     0.170 HD
BRANCH  13  15
HETATM   15  C   UNL     1       7.177  -0.072  20.193  1.00  0.00     0.072 A 
HETATM   16  C   UNL     1       7.211   0.029  18.855  1.00  0.00     0.119 A 
HETATM   17  N   UNL     1       6.812   0.294  17.772  1.00  0.00    -0.373 N 
HETATM   18  C   UNL     1       5.631   0.931  18.255  1.00  0.00     0.089 A 
ATOM     19  HN  UNL     1       7.179   0.127  16.835  1.00  0.00     0.164 HD
HETATM   20  C   UNL     1       5.265   0.986  19.384  1.00  0.00     0.043 A 
HETATM   21  C   UNL     1       5.816   0.580  20.547  1.00  0.00     0.063 A 
HETATM   22 CL   UNL     1       5.290   0.752  22.018  1.00  0.00    -0.082 Cl
ENDBRANCH  13  15
ENDBRANCH  10  11
ENDBRANCH   1  10
BRANCH   1  23
HETATM   23  C   UNL     1      11.034  -0.054  24.244  1.00  0.00    -0.010 C 
BRANCH  23  24
HETATM   24  C   UNL     1      12.132   0.225  24.146  1.00  0.00    -0.025 C 
BRANCH  24  25
HETATM   25  C   UNL     1      13.098  -0.144  23.519  1.00  0.00     0.053 C 
BRANCH  25  26
HETATM   26  C   UNL     1      12.731  -1.393  22.646  1.00  0.00    -0.033 C 
HETATM   27  C   UNL     1      11.844  -1.843  22.532  1.00  0.00     0.007 C 
ENDBRANCH  25  26
ENDBRANCH  24  25
ENDBRANCH  23  24
ENDBRANCH   1  23
TORSDOF 11
