stable:False satoms:6 tatoms:24 sratio:0.25
  -OEChem-07092417443D

 24 24  0     1  0  0  0  0  0999 V2000
    6.7574   -4.7597   26.3984 C   0  0  0  0  0  0  0  0  0  0  0  0
    8.1768   -4.3361   26.1307 S   0  0  0  0  0  0  0  0  0  0  0  0
    9.0524   -5.4805   26.0116 O   0  0  0  0  0  0  0  0  0  0  0  0
    8.6408   -3.4345   27.1649 O   0  0  0  0  0  0  0  0  0  0  0  0
    8.0914   -3.4930   24.7062 N   0  0  0  0  0  0  0  0  0  0  0  0
    8.9196   -2.8988   24.1853 C   0  0  0  0  0  0  0  0  0  0  0  0
    9.4016   -1.9908   23.5370 C   0  0  0  0  0  0  0  0  0  0  0  0
   10.2923   -1.1071   23.2688 C   0  0  2  0  0  0  0  0  0  0  0  0
   11.0339   -0.0540   24.2437 C   0  0  0  0  0  0  0  0  0  0  0  0
   12.1315    0.2248   24.1465 C   0  0  0  0  0  0  0  0  0  0  0  0
   13.0985   -0.1444   23.5187 C   0  0  0  0  0  0  0  0  0  0  0  0
   12.7312   -1.3926   22.6459 C   0  0  0  0  0  0  0  0  0  0  0  0
   11.8438   -1.8432   22.5316 C   0  0  0  0  0  0  0  0  0  0  0  0
    9.6930   -0.6250   22.3671 C   0  0  0  0  0  0  0  0  0  0  0  0
    9.0543    0.0645   21.3676 C   0  0  0  0  0  0  0  0  0  0  0  0
    9.5551    1.0113   20.9386 O   0  0  0  0  0  0  0  0  0  0  0  0
    7.9087   -0.5296   21.1089 N   0  0  0  0  0  0  0  0  0  0  0  0
    7.1768   -0.0725   20.1929 C   0  0  0  0  0  0  0  0  0  0  0  0
    7.2107    0.0290   18.8550 C   0  0  0  0  0  0  0  0  0  0  0  0
    6.8124    0.2936   17.7719 N   0  0  0  0  0  0  0  0  0  0  0  0
    5.6313    0.9315   18.2553 C   0  0  0  0  0  0  0  0  0  0  0  0
    5.2649    0.9855   19.3842 C   0  0  0  0  0  0  0  0  0  0  0  0
    5.8157    0.5796   20.5474 C   0  0  0  0  0  0  0  0  0  0  0  0
    5.2902    0.7519   22.0183 Cl  0  0  0  0  0  0  0  0  0  0  0  0
 20 21  2  0  0  0  0
 19 20  1  0  0  0  0
 21 22  1  0  0  0  0
 18 19  2  0  0  0  0
 22 23  2  0  0  0  0
 18 23  1  0  0  0  0
 17 18  1  0  0  0  0
 23 24  1  0  0  0  0
 15 16  2  0  0  0  0
 15 17  1  0  0  0  0
 14 15  1  0  0  0  0
  8 14  1  0  0  0  0
 12 13  2  0  0  0  0
 11 12  1  0  0  0  0
  7  8  1  0  0  0  0
  8  9  1  0  0  0  0
 10 11  1  0  0  0  0
  6  7  2  3  0  0  0
  9 10  2  0  0  0  0
  5  6  1  0  0  0  0
  2  5  1  0  0  0  0
  2  3  2  0  0  0  0
  1  2  1  0  0  0  0
  2  4  2  0  0  0  0
M  END
> <Shapegauss>
-284.970367

$$$$
