MODEL 1
REMARK VINA RESULT:    -5.884      0.000      0.000
REMARK INTER + INTRA:         -11.461
REMARK INTER:                  -9.667
REMARK INTRA:                  -1.793
REMARK UNBOUND:                -1.793
REMARK  11 active torsions:
REMARK  status: ('A' for Active; 'I' for Inactive)
REMARK    1  A    between atoms: S_2  and  N_5 
REMARK    2  A    between atoms: N_5  and  C_7 
REMARK    3  A    between atoms: C_7  and  C_8 
REMARK    4  A    between atoms: C_8  and  C_9 
REMARK    5  A    between atoms: C_9  and  C_15 
REMARK    6  A    between atoms: C_9  and  C_10 
REMARK    7  A    between atoms: C_10  and  C_11 
REMARK    8  A    between atoms: C_11  and  C_12 
REMARK    9  A    between atoms: C_12  and  C_13 
REMARK   10  A    between atoms: C_15  and  C_16 
REMARK       I    between atoms: C_16  and  N_18 
REMARK   11  A    between atoms: N_18  and  C_20 
ROOT
HETATM    1  C   UNL     1       9.587  -2.123  22.669  1.00  0.00     0.108 C 
ENDROOT
BRANCH   1   2
HETATM    2  C   UNL     1       8.550  -2.540  23.299  1.00  0.00     0.011 C 
BRANCH   2   3
HETATM    3  C   UNL     1       7.654  -3.327  23.533  1.00  0.00     0.097 C 
BRANCH   3   4
HETATM    4  N   UNL     1       6.606  -3.781  23.449  1.00  0.00    -0.296 N 
ATOM      5  HN  UNL     1       6.029  -3.731  24.288  1.00  0.00     0.177 HD
BRANCH   4   6
HETATM    6  S   UNL     1       5.910  -4.511  22.132  1.00  0.00     0.226 S 
HETATM    7  C   UNL     1       6.961  -5.471  21.641  1.00  0.00     0.186 C 
HETATM    8  O   UNL     1       4.696  -5.205  22.497  1.00  0.00    -0.206 OA
HETATM    9  O   UNL     1       5.646  -3.493  21.136  1.00  0.00    -0.206 OA
ENDBRANCH   4   6
ENDBRANCH   3   4
ENDBRANCH   2   3
ENDBRANCH   1   2
BRANCH   1  10
HETATM   10  C   UNL     1       8.983  -1.432  21.919  1.00  0.00    -0.071 C 
BRANCH  10  11
HETATM   11  C   UNL     1       8.411  -0.551  21.036  1.00  0.00     0.289 C 
HETATM   12  O   UNL     1       9.069   0.273  20.570  1.00  0.00    -0.259 OA
HETATM   13  N   UNL     1       7.133  -0.842  20.918  1.00  0.00    -0.314 N 
ATOM     14  HN  UNL     1       6.722  -1.601  21.463  1.00  0.00     0.170 HD
BRANCH  13  15
HETATM   15  C   UNL     1       6.425  -0.170  20.124  1.00  0.00     0.072 A 
HETATM   16  C   UNL     1       5.933  -0.302  18.882  1.00  0.00     0.119 A 
HETATM   17  N   UNL     1       5.307  -0.006  17.921  1.00  0.00    -0.373 N 
HETATM   18  C   UNL     1       4.947   1.277  18.429  1.00  0.00     0.089 A 
ATOM     19  HN  UNL     1       5.100  -0.492  17.048  1.00  0.00     0.164 HD
HETATM   20  C   UNL     1       5.179   1.702  19.513  1.00  0.00     0.043 A 
HETATM   21  C   UNL     1       5.882   1.216  20.557  1.00  0.00     0.063 A 
HETATM   22 CL   UNL     1       6.199   1.878  21.947  1.00  0.00    -0.082 Cl
ENDBRANCH  13  15
ENDBRANCH  10  11
ENDBRANCH   1  10
BRANCH   1  23
HETATM   23  C   UNL     1      10.959  -1.489  23.239  1.00  0.00    -0.010 C 
BRANCH  23  24
HETATM   24  C   UNL     1      10.993  -0.684  24.041  1.00  0.00    -0.025 C 
BRANCH  24  25
HETATM   25  C   UNL     1      10.819   0.511  24.119  1.00  0.00     0.053 C 
BRANCH  25  26
HETATM   26  C   UNL     1       9.567   0.817  25.011  1.00  0.00    -0.033 C 
HETATM   27  C   UNL     1       8.856   1.511  24.881  1.00  0.00     0.007 C 
ENDBRANCH  25  26
ENDBRANCH  24  25
ENDBRANCH  23  24
ENDBRANCH   1  23
TORSDOF 11
ENDMDL
MODEL 2
REMARK VINA RESULT:    -5.585     14.627     16.377
REMARK INTER + INTRA:         -10.970
REMARK INTER:                  -9.359
REMARK INTRA:                  -1.611
REMARK UNBOUND:                -1.793
REMARK  11 active torsions:
REMARK  status: ('A' for Active; 'I' for Inactive)
REMARK    1  A    between atoms: S_2  and  N_5 
REMARK    2  A    between atoms: N_5  and  C_7 
REMARK    3  A    between atoms: C_7  and  C_8 
REMARK    4  A    between atoms: C_8  and  C_9 
REMARK    5  A    between atoms: C_9  and  C_15 
REMARK    6  A    between atoms: C_9  and  C_10 
REMARK    7  A    between atoms: C_10  and  C_11 
REMARK    8  A    between atoms: C_11  and  C_12 
REMARK    9  A    between atoms: C_12  and  C_13 
REMARK   10  A    between atoms: C_15  and  C_16 
REMARK       I    between atoms: C_16  and  N_18 
REMARK   11  A    between atoms: N_18  and  C_20 
ROOT
HETATM    1  C   UNL     1      24.096  -1.745  23.565  1.00  0.00     0.108 C 
ENDROOT
BRANCH   1   2
HETATM    2  C   UNL     1      23.848  -2.963  23.884  1.00  0.00     0.011 C 
BRANCH   2   3
HETATM    3  C   UNL     1      23.449  -3.843  24.622  1.00  0.00     0.097 C 
BRANCH   3   4
HETATM    4  N   UNL     1      23.536  -4.723  25.349  1.00  0.00    -0.296 N 
ATOM      5  HN  UNL     1      22.967  -4.661  26.193  1.00  0.00     0.177 HD
BRANCH   4   6
HETATM    6  S   UNL     1      24.468  -6.086  25.200  1.00  0.00     0.226 S 
HETATM    7  C   UNL     1      25.854  -5.630  25.574  1.00  0.00     0.186 C 
HETATM    8  O   UNL     1      24.008  -7.136  26.080  1.00  0.00    -0.206 OA
HETATM    9  O   UNL     1      24.430  -6.514  23.817  1.00  0.00    -0.206 OA
ENDBRANCH   4   6
ENDBRANCH   3   4
ENDBRANCH   2   3
ENDBRANCH   1   2
BRANCH   1  10
HETATM   10  C   UNL     1      23.622  -1.822  22.482  1.00  0.00    -0.071 C 
BRANCH  10  11
HETATM   11  C   UNL     1      23.102  -1.765  21.214  1.00  0.00     0.289 C 
HETATM   12  O   UNL     1      21.958  -1.833  21.079  1.00  0.00    -0.259 OA
HETATM   13  N   UNL     1      24.093  -1.660  20.354  1.00  0.00    -0.314 N 
ATOM     14  HN  UNL     1      25.061  -1.660  20.677  1.00  0.00     0.170 HD
BRANCH  13  15
HETATM   15  C   UNL     1      23.829  -1.558  19.128  1.00  0.00     0.072 A 
HETATM   16  C   UNL     1      23.380  -0.614  18.286  1.00  0.00     0.119 A 
HETATM   17  N   UNL     1      23.072  -0.140  17.246  1.00  0.00    -0.373 N 
HETATM   18  C   UNL     1      23.240  -1.359  16.526  1.00  0.00     0.089 A 
ATOM     19  HN  UNL     1      22.789   0.800  16.966  1.00  0.00     0.164 HD
HETATM   20  C   UNL     1      23.666  -2.383  16.954  1.00  0.00     0.043 A 
HETATM   21  C   UNL     1      24.039  -2.775  18.190  1.00  0.00     0.063 A 
HETATM   22 CL   UNL     1      24.534  -4.181  18.688  1.00  0.00    -0.082 Cl
ENDBRANCH  13  15
ENDBRANCH  10  11
ENDBRANCH   1  10
BRANCH   1  23
HETATM   23  C   UNL     1      23.773  -0.378  24.363  1.00  0.00    -0.010 C 
BRANCH  23  24
HETATM   24  C   UNL     1      22.828  -0.217  24.974  1.00  0.00    -0.025 C 
BRANCH  24  25
HETATM   25  C   UNL     1      21.749   0.311  24.834  1.00  0.00     0.053 C 
BRANCH  25  26
HETATM   26  C   UNL     1      20.661  -0.764  24.491  1.00  0.00    -0.033 C 
HETATM   27  C   UNL     1      20.465  -1.631  24.951  1.00  0.00     0.007 C 
ENDBRANCH  25  26
ENDBRANCH  24  25
ENDBRANCH  23  24
ENDBRANCH   1  23
TORSDOF 11
ENDMDL
MODEL 3
REMARK VINA RESULT:    -5.544     24.002     27.065
REMARK INTER + INTRA:         -10.903
REMARK INTER:                  -9.048
REMARK INTRA:                  -1.855
REMARK UNBOUND:                -1.793
REMARK  11 active torsions:
REMARK  status: ('A' for Active; 'I' for Inactive)
REMARK    1  A    between atoms: S_2  and  N_5 
REMARK    2  A    between atoms: N_5  and  C_7 
REMARK    3  A    between atoms: C_7  and  C_8 
REMARK    4  A    between atoms: C_8  and  C_9 
REMARK    5  A    between atoms: C_9  and  C_15 
REMARK    6  A    between atoms: C_9  and  C_10 
REMARK    7  A    between atoms: C_10  and  C_11 
REMARK    8  A    between atoms: C_11  and  C_12 
REMARK    9  A    between atoms: C_12  and  C_13 
REMARK   10  A    between atoms: C_15  and  C_16 
REMARK       I    between atoms: C_16  and  N_18 
REMARK   11  A    between atoms: N_18  and  C_20 
ROOT
HETATM    1  C   UNL     1       8.460  17.543   1.073  1.00  0.00     0.108 C 
ENDROOT
BRANCH   1   2
HETATM    2  C   UNL     1       8.981  16.372   1.095  1.00  0.00     0.011 C 
BRANCH   2   3
HETATM    3  C   UNL     1       8.987  15.179   1.330  1.00  0.00     0.097 C 
BRANCH   3   4
HETATM    4  N   UNL     1       8.901  14.234   1.971  1.00  0.00    -0.296 N 
ATOM      5  HN  UNL     1       8.492  13.420   1.512  1.00  0.00     0.177 HD
BRANCH   4   6
HETATM    6  S   UNL     1       9.357  14.024   3.550  1.00  0.00     0.226 S 
HETATM    7  C   UNL     1       8.328  14.790   4.339  1.00  0.00     0.186 C 
HETATM    8  O   UNL     1       9.361  12.624   3.914  1.00  0.00    -0.206 OA
HETATM    9  O   UNL     1      10.671  14.609   3.725  1.00  0.00    -0.206 OA
ENDBRANCH   4   6
ENDBRANCH   3   4
ENDBRANCH   2   3
ENDBRANCH   1   2
BRANCH   1  10
HETATM   10  C   UNL     1       8.858  17.856   2.144  1.00  0.00    -0.071 C 
BRANCH  10  11
HETATM   11  C   UNL     1       9.182  18.276   3.410  1.00  0.00     0.289 C 
HETATM   12  O   UNL     1       8.468  19.000   3.954  1.00  0.00    -0.259 OA
HETATM   13  N   UNL     1      10.336  17.742   3.749  1.00  0.00    -0.314 N 
ATOM     14  HN  UNL     1      10.845  17.148   3.094  1.00  0.00     0.170 HD
BRANCH  13  15
HETATM   15  C   UNL     1      10.803  17.974   4.895  1.00  0.00     0.072 A 
HETATM   16  C   UNL     1      10.748  17.423   6.117  1.00  0.00     0.119 A 
HETATM   17  N   UNL     1      11.005  17.292   7.266  1.00  0.00    -0.373 N 
HETATM   18  C   UNL     1      11.772  18.492   7.333  1.00  0.00     0.089 A 
ATOM     19  HN  UNL     1      10.765  16.580   7.956  1.00  0.00     0.164 HD
HETATM   20  C   UNL     1      12.057  19.204   6.426  1.00  0.00     0.043 A 
HETATM   21  C   UNL     1      11.726  19.199   5.118  1.00  0.00     0.063 A 
HETATM   22 CL   UNL     1      12.098  20.226   3.987  1.00  0.00    -0.082 Cl
ENDBRANCH  13  15
ENDBRANCH  10  11
ENDBRANCH   1  10
BRANCH   1  23
HETATM   23  C   UNL     1       8.546  18.695  -0.057  1.00  0.00    -0.010 C 
BRANCH  23  24
HETATM   24  C   UNL     1       9.080  19.687   0.098  1.00  0.00    -0.025 C 
BRANCH  24  25
HETATM   25  C   UNL     1       9.012  20.817  -0.327  1.00  0.00     0.053 C 
BRANCH  25  26
HETATM   26  C   UNL     1       9.861  21.783   0.570  1.00  0.00    -0.033 C 
HETATM   27  C   UNL     1      10.778  21.649   0.947  1.00  0.00     0.007 C 
ENDBRANCH  25  26
ENDBRANCH  24  25
ENDBRANCH  23  24
ENDBRANCH   1  23
TORSDOF 11
ENDMDL
MODEL 4
REMARK VINA RESULT:    -5.523      2.646      4.963
REMARK INTER + INTRA:         -10.868
REMARK INTER:                  -9.186
REMARK INTRA:                  -1.682
REMARK UNBOUND:                -1.793
REMARK  11 active torsions:
REMARK  status: ('A' for Active; 'I' for Inactive)
REMARK    1  A    between atoms: S_2  and  N_5 
REMARK    2  A    between atoms: N_5  and  C_7 
REMARK    3  A    between atoms: C_7  and  C_8 
REMARK    4  A    between atoms: C_8  and  C_9 
REMARK    5  A    between atoms: C_9  and  C_15 
REMARK    6  A    between atoms: C_9  and  C_10 
REMARK    7  A    between atoms: C_10  and  C_11 
REMARK    8  A    between atoms: C_11  and  C_12 
REMARK    9  A    between atoms: C_12  and  C_13 
REMARK   10  A    between atoms: C_15  and  C_16 
REMARK       I    between atoms: C_16  and  N_18 
REMARK   11  A    between atoms: N_18  and  C_20 
ROOT
HETATM    1  C   UNL     1       8.332   1.147  22.896  1.00  0.00     0.108 C 
ENDROOT
BRANCH   1   2
HETATM    2  C   UNL     1       7.180   1.350  22.369  1.00  0.00     0.011 C 
BRANCH   2   3
HETATM    3  C   UNL     1       6.400   1.438  21.442  1.00  0.00     0.097 C 
BRANCH   3   4
HETATM    4  N   UNL     1       6.015   1.285  20.374  1.00  0.00    -0.296 N 
ATOM      5  HN  UNL     1       5.331   1.965  20.044  1.00  0.00     0.177 HD
BRANCH   4   6
HETATM    6  S   UNL     1       6.433   0.096  19.297  1.00  0.00     0.226 S 
HETATM    7  C   UNL     1       5.666   0.440  18.048  1.00  0.00     0.186 C 
HETATM    8  O   UNL     1       7.857   0.086  19.051  1.00  0.00    -0.206 OA
HETATM    9  O   UNL     1       5.990  -1.176  19.831  1.00  0.00    -0.206 OA
ENDBRANCH   4   6
ENDBRANCH   3   4
ENDBRANCH   2   3
ENDBRANCH   1   2
BRANCH   1  10
HETATM   10  C   UNL     1       8.324  -0.025  22.717  1.00  0.00    -0.071 C 
BRANCH  10  11
HETATM   11  C   UNL     1       8.335  -1.351  22.366  1.00  0.00     0.289 C 
HETATM   12  O   UNL     1       9.211  -1.749  21.730  1.00  0.00    -0.259 OA
HETATM   13  N   UNL     1       7.252  -1.925  22.845  1.00  0.00    -0.314 N 
ATOM     14  HN  UNL     1       6.559  -1.378  23.357  1.00  0.00     0.170 HD
BRANCH  13  15
HETATM   15  C   UNL     1       7.083  -3.159  22.662  1.00  0.00     0.072 A 
HETATM   16  C   UNL     1       6.462  -3.953  21.777  1.00  0.00     0.119 A 
HETATM   17  N   UNL     1       6.126  -4.972  21.274  1.00  0.00    -0.373 N 
HETATM   18  C   UNL     1       6.703  -5.781  22.297  1.00  0.00     0.089 A 
ATOM     19  HN  UNL     1       5.613  -5.191  20.421  1.00  0.00     0.164 HD
HETATM   20  C   UNL     1       7.364  -5.406  23.211  1.00  0.00     0.043 A 
HETATM   21  C   UNL     1       7.719  -4.177  23.642  1.00  0.00     0.063 A 
HETATM   22 CL   UNL     1       8.549  -3.763  24.911  1.00  0.00    -0.082 Cl
ENDBRANCH  13  15
ENDBRANCH  10  11
ENDBRANCH   1  10
BRANCH   1  23
HETATM   23  C   UNL     1       9.745   1.877  22.612  1.00  0.00    -0.010 C 
BRANCH  23  24
HETATM   24  C   UNL     1      10.426   2.267  23.435  1.00  0.00    -0.025 C 
BRANCH  24  25
HETATM   25  C   UNL     1      11.547   2.065  23.842  1.00  0.00     0.053 C 
BRANCH  25  26
HETATM   26  C   UNL     1      11.656   0.616  24.429  1.00  0.00    -0.033 C 
HETATM   27  C   UNL     1      12.438  -0.009  24.424  1.00  0.00     0.007 C 
ENDBRANCH  25  26
ENDBRANCH  24  25
ENDBRANCH  23  24
ENDBRANCH   1  23
TORSDOF 11
ENDMDL
MODEL 5
REMARK VINA RESULT:    -5.454      3.104      5.895
REMARK INTER + INTRA:         -10.754
REMARK INTER:                  -9.777
REMARK INTRA:                  -0.977
REMARK UNBOUND:                -1.793
REMARK  11 active torsions:
REMARK  status: ('A' for Active; 'I' for Inactive)
REMARK    1  A    between atoms: S_2  and  N_5 
REMARK    2  A    between atoms: N_5  and  C_7 
REMARK    3  A    between atoms: C_7  and  C_8 
REMARK    4  A    between atoms: C_8  and  C_9 
REMARK    5  A    between atoms: C_9  and  C_15 
REMARK    6  A    between atoms: C_9  and  C_10 
REMARK    7  A    between atoms: C_10  and  C_11 
REMARK    8  A    between atoms: C_11  and  C_12 
REMARK    9  A    between atoms: C_12  and  C_13 
REMARK   10  A    between atoms: C_15  and  C_16 
REMARK       I    between atoms: C_16  and  N_18 
REMARK   11  A    between atoms: N_18  and  C_20 
ROOT
HETATM    1  C   UNL     1       8.538  -1.692  22.682  1.00  0.00     0.108 C 
ENDROOT
BRANCH   1   2
HETATM    2  C   UNL     1       7.796  -1.181  21.769  1.00  0.00     0.011 C 
BRANCH   2   3
HETATM    3  C   UNL     1       6.773  -1.070  21.124  1.00  0.00     0.097 C 
BRANCH   3   4
HETATM    4  N   UNL     1       5.980  -0.532  20.496  1.00  0.00    -0.296 N 
ATOM      5  HN  UNL     1       5.068  -0.413  20.937  1.00  0.00     0.177 HD
BRANCH   4   6
HETATM    6  S   UNL     1       6.129   0.076  18.961  1.00  0.00     0.226 S 
HETATM    7  C   UNL     1       5.080   1.154  18.886  1.00  0.00     0.186 C 
HETATM    8  O   UNL     1       7.452   0.615  18.736  1.00  0.00    -0.206 OA
HETATM    9  O   UNL     1       5.834  -0.986  18.021  1.00  0.00    -0.206 OA
ENDBRANCH   4   6
ENDBRANCH   3   4
ENDBRANCH   2   3
ENDBRANCH   1   2
BRANCH   1  10
HETATM   10  C   UNL     1       7.910  -2.693  22.780  1.00  0.00    -0.071 C 
BRANCH  10  11
HETATM   11  C   UNL     1       7.272  -3.886  23.007  1.00  0.00     0.289 C 
HETATM   12  O   UNL     1       7.501  -4.778  22.314  1.00  0.00    -0.259 OA
HETATM   13  N   UNL     1       6.456  -3.740  24.029  1.00  0.00    -0.314 N 
ATOM     14  HN  UNL     1       6.361  -2.836  24.493  1.00  0.00     0.170 HD
BRANCH  13  15
HETATM   15  C   UNL     1       5.793  -4.734  24.427  1.00  0.00     0.072 A 
HETATM   16  C   UNL     1       4.728  -5.442  24.020  1.00  0.00     0.119 A 
HETATM   17  N   UNL     1       3.923  -6.310  24.044  1.00  0.00    -0.373 N 
HETATM   18  C   UNL     1       4.372  -6.826  25.295  1.00  0.00     0.089 A 
ATOM     19  HN  UNL     1       3.180  -6.588  23.402  1.00  0.00     0.164 HD
HETATM   20  C   UNL     1       5.319  -6.464  25.914  1.00  0.00     0.043 A 
HETATM   21  C   UNL     1       6.204  -5.462  25.733  1.00  0.00     0.063 A 
HETATM   22 CL   UNL     1       7.401  -5.006  26.643  1.00  0.00    -0.082 Cl
ENDBRANCH  13  15
ENDBRANCH  10  11
ENDBRANCH   1  10
BRANCH   1  23
HETATM   23  C   UNL     1      10.142  -1.879  22.732  1.00  0.00    -0.010 C 
BRANCH  23  24
HETATM   24  C   UNL     1      10.798  -1.449  23.555  1.00  0.00    -0.025 C 
BRANCH  24  25
HETATM   25  C   UNL     1      10.806  -0.482  24.282  1.00  0.00     0.053 C 
BRANCH  25  26
HETATM   26  C   UNL     1      12.254   0.112  24.375  1.00  0.00    -0.033 C 
HETATM   27  C   UNL     1      13.133  -0.352  24.258  1.00  0.00     0.007 C 
ENDBRANCH  25  26
ENDBRANCH  24  25
ENDBRANCH  23  24
ENDBRANCH   1  23
TORSDOF 11
ENDMDL
MODEL 6
REMARK VINA RESULT:    -5.441      4.250      6.420
REMARK INTER + INTRA:         -10.732
REMARK INTER:                  -9.560
REMARK INTRA:                  -1.172
REMARK UNBOUND:                -1.793
REMARK  11 active torsions:
REMARK  status: ('A' for Active; 'I' for Inactive)
REMARK    1  A    between atoms: S_2  and  N_5 
REMARK    2  A    between atoms: N_5  and  C_7 
REMARK    3  A    between atoms: C_7  and  C_8 
REMARK    4  A    between atoms: C_8  and  C_9 
REMARK    5  A    between atoms: C_9  and  C_15 
REMARK    6  A    between atoms: C_9  and  C_10 
REMARK    7  A    between atoms: C_10  and  C_11 
REMARK    8  A    between atoms: C_11  and  C_12 
REMARK    9  A    between atoms: C_12  and  C_13 
REMARK   10  A    between atoms: C_15  and  C_16 
REMARK       I    between atoms: C_16  and  N_18 
REMARK   11  A    between atoms: N_18  and  C_20 
ROOT
HETATM    1  C   UNL     1       6.798  -3.606  25.437  1.00  0.00     0.108 C 
ENDROOT
BRANCH   1   2
HETATM    2  C   UNL     1       7.608  -4.295  26.154  1.00  0.00     0.011 C 
BRANCH   2   3
HETATM    3  C   UNL     1       7.896  -5.165  26.953  1.00  0.00     0.097 C 
BRANCH   3   4
HETATM    4  N   UNL     1       7.717  -6.071  27.630  1.00  0.00    -0.296 N 
ATOM      5  HN  UNL     1       8.423  -6.806  27.588  1.00  0.00     0.177 HD
BRANCH   4   6
HETATM    6  S   UNL     1       6.453  -6.337  28.669  1.00  0.00     0.226 S 
HETATM    7  C   UNL     1       5.244  -6.405  27.775  1.00  0.00     0.186 C 
HETATM    8  O   UNL     1       6.629  -7.568  29.406  1.00  0.00    -0.206 OA
HETATM    9  O   UNL     1       6.358  -5.204  29.567  1.00  0.00    -0.206 OA
ENDBRANCH   4   6
ENDBRANCH   3   4
ENDBRANCH   2   3
ENDBRANCH   1   2
BRANCH   1  10
HETATM   10  C   UNL     1       7.640  -2.938  24.939  1.00  0.00    -0.071 C 
BRANCH  10  11
HETATM   11  C   UNL     1       8.710  -2.278  24.389  1.00  0.00     0.289 C 
HETATM   12  O   UNL     1       9.244  -2.746  23.480  1.00  0.00    -0.259 OA
HETATM   13  N   UNL     1       8.932  -1.182  25.083  1.00  0.00    -0.314 N 
ATOM     14  HN  UNL     1       8.363  -0.962  25.901  1.00  0.00     0.170 HD
BRANCH  13  15
HETATM   15  C   UNL     1       9.858  -0.409  24.723  1.00  0.00     0.072 A 
HETATM   16  C   UNL     1      11.199  -0.380  24.768  1.00  0.00     0.119 A 
HETATM   17  N   UNL     1      12.287   0.040  24.563  1.00  0.00    -0.373 N 
HETATM   18  C   UNL     1      11.817   1.254  23.981  1.00  0.00     0.089 A 
ATOM     19  HN  UNL     1      13.221  -0.332  24.737  1.00  0.00     0.164 HD
HETATM   20  C   UNL     1      10.687   1.539  23.749  1.00  0.00     0.043 A 
HETATM   21  C   UNL     1       9.515   0.919  23.999  1.00  0.00     0.063 A 
HETATM   22 CL   UNL     1       8.046   1.400  23.714  1.00  0.00    -0.082 Cl
ENDBRANCH  13  15
ENDBRANCH  10  11
ENDBRANCH   1  10
BRANCH   1  23
HETATM   23  C   UNL     1       5.625  -4.094  24.438  1.00  0.00    -0.010 C 
BRANCH  23  24
HETATM   24  C   UNL     1       5.744  -4.955  23.705  1.00  0.00    -0.025 C 
BRANCH  24  25
HETATM   25  C   UNL     1       5.110  -5.464  22.810  1.00  0.00     0.053 C 
BRANCH  25  26
HETATM   26  C   UNL     1       6.052  -5.804  21.604  1.00  0.00    -0.033 C 
HETATM   27  C   UNL     1       7.052  -5.858  21.582  1.00  0.00     0.007 C 
ENDBRANCH  25  26
ENDBRANCH  24  25
ENDBRANCH  23  24
ENDBRANCH   1  23
TORSDOF 11
ENDMDL
MODEL 7
REMARK VINA RESULT:    -5.417      2.325      2.784
REMARK INTER + INTRA:         -10.694
REMARK INTER:                  -9.807
REMARK INTRA:                  -0.887
REMARK UNBOUND:                -1.793
REMARK  11 active torsions:
REMARK  status: ('A' for Active; 'I' for Inactive)
REMARK    1  A    between atoms: S_2  and  N_5 
REMARK    2  A    between atoms: N_5  and  C_7 
REMARK    3  A    between atoms: C_7  and  C_8 
REMARK    4  A    between atoms: C_8  and  C_9 
REMARK    5  A    between atoms: C_9  and  C_15 
REMARK    6  A    between atoms: C_9  and  C_10 
REMARK    7  A    between atoms: C_10  and  C_11 
REMARK    8  A    between atoms: C_11  and  C_12 
REMARK    9  A    between atoms: C_12  and  C_13 
REMARK   10  A    between atoms: C_15  and  C_16 
REMARK       I    between atoms: C_16  and  N_18 
REMARK   11  A    between atoms: N_18  and  C_20 
ROOT
HETATM    1  C   UNL     1       8.764  -1.828  23.583  1.00  0.00     0.108 C 
ENDROOT
BRANCH   1   2
HETATM    2  C   UNL     1       8.252  -2.860  24.148  1.00  0.00     0.011 C 
BRANCH   2   3
HETATM    3  C   UNL     1       8.242  -4.022  24.504  1.00  0.00     0.097 C 
BRANCH   3   4
HETATM    4  N   UNL     1       7.914  -4.928  25.121  1.00  0.00    -0.296 N 
ATOM      5  HN  UNL     1       8.172  -5.841  24.746  1.00  0.00     0.177 HD
BRANCH   4   6
HETATM    6  S   UNL     1       7.071  -4.943  26.549  1.00  0.00     0.226 S 
HETATM    7  C   UNL     1       5.958  -5.930  26.314  1.00  0.00     0.186 C 
HETATM    8  O   UNL     1       7.912  -5.354  27.651  1.00  0.00    -0.206 OA
HETATM    9  O   UNL     1       6.534  -3.616  26.773  1.00  0.00    -0.206 OA
ENDBRANCH   4   6
ENDBRANCH   3   4
ENDBRANCH   2   3
ENDBRANCH   1   2
BRANCH   1  10
HETATM   10  C   UNL     1       7.901  -1.710  22.779  1.00  0.00    -0.071 C 
BRANCH  10  11
HETATM   11  C   UNL     1       7.002  -1.501  21.764  1.00  0.00     0.289 C 
HETATM   12  O   UNL     1       6.107  -2.220  21.659  1.00  0.00    -0.259 OA
HETATM   13  N   UNL     1       7.395  -0.461  21.059  1.00  0.00    -0.314 N 
ATOM     14  HN  UNL     1       8.260   0.026  21.292  1.00  0.00     0.170 HD
BRANCH  13  15
HETATM   15  C   UNL     1       6.686  -0.077  20.092  1.00  0.00     0.072 A 
HETATM   16  C   UNL     1       6.375  -0.507  18.859  1.00  0.00     0.119 A 
HETATM   17  N   UNL     1       5.828  -0.501  17.809  1.00  0.00    -0.373 N 
HETATM   18  C   UNL     1       5.203   0.762  18.031  1.00  0.00     0.089 A 
ATOM     19  HN  UNL     1       5.810  -1.159  17.030  1.00  0.00     0.164 HD
HETATM   20  C   UNL     1       5.231   1.402  19.031  1.00  0.00     0.043 A 
HETATM   21  C   UNL     1       5.874   1.239  20.206  1.00  0.00     0.063 A 
HETATM   22 CL   UNL     1       5.909   2.176  21.467  1.00  0.00    -0.082 Cl
ENDBRANCH  13  15
ENDBRANCH  10  11
ENDBRANCH   1  10
BRANCH   1  23
HETATM   23  C   UNL     1       9.295  -0.447  24.232  1.00  0.00    -0.010 C 
BRANCH  23  24
HETATM   24  C   UNL     1      10.210  -0.381  24.903  1.00  0.00    -0.025 C 
BRANCH  24  25
HETATM   25  C   UNL     1      11.115   0.394  25.111  1.00  0.00     0.053 C 
BRANCH  25  26
HETATM   26  C   UNL     1      12.287   0.139  24.101  1.00  0.00    -0.033 C 
HETATM   27  C   UNL     1      13.111  -0.416  24.220  1.00  0.00     0.007 C 
ENDBRANCH  25  26
ENDBRANCH  24  25
ENDBRANCH  23  24
ENDBRANCH   1  23
TORSDOF 11
ENDMDL
MODEL 8
REMARK VINA RESULT:    -5.389      3.382      6.268
REMARK INTER + INTRA:         -10.647
REMARK INTER:                  -9.230
REMARK INTRA:                  -1.417
REMARK UNBOUND:                -1.793
REMARK  11 active torsions:
REMARK  status: ('A' for Active; 'I' for Inactive)
REMARK    1  A    between atoms: S_2  and  N_5 
REMARK    2  A    between atoms: N_5  and  C_7 
REMARK    3  A    between atoms: C_7  and  C_8 
REMARK    4  A    between atoms: C_8  and  C_9 
REMARK    5  A    between atoms: C_9  and  C_15 
REMARK    6  A    between atoms: C_9  and  C_10 
REMARK    7  A    between atoms: C_10  and  C_11 
REMARK    8  A    between atoms: C_11  and  C_12 
REMARK    9  A    between atoms: C_12  and  C_13 
REMARK   10  A    between atoms: C_15  and  C_16 
REMARK       I    between atoms: C_16  and  N_18 
REMARK   11  A    between atoms: N_18  and  C_20 
ROOT
HETATM    1  C   UNL     1       6.430   3.105  22.166  1.00  0.00     0.108 C 
ENDROOT
BRANCH   1   2
HETATM    2  C   UNL     1       5.938   2.510  21.142  1.00  0.00     0.011 C 
BRANCH   2   3
HETATM    3  C   UNL     1       5.433   1.572  20.557  1.00  0.00     0.097 C 
BRANCH   3   4
HETATM    4  N   UNL     1       5.409   0.628  19.909  1.00  0.00    -0.296 N 
ATOM      5  HN  UNL     1       4.756  -0.098  20.203  1.00  0.00     0.177 HD
BRANCH   4   6
HETATM    6  S   UNL     1       6.302   0.295  18.552  1.00  0.00     0.226 S 
HETATM    7  C   UNL     1       5.979   1.424  17.609  1.00  0.00     0.186 C 
HETATM    8  O   UNL     1       7.716   0.251  18.852  1.00  0.00    -0.206 OA
HETATM    9  O   UNL     1       5.847  -0.967  18.008  1.00  0.00    -0.206 OA
ENDBRANCH   4   6
ENDBRANCH   3   4
ENDBRANCH   2   3
ENDBRANCH   1   2
BRANCH   1  10
HETATM   10  C   UNL     1       7.421   2.456  22.197  1.00  0.00    -0.071 C 
BRANCH  10  11
HETATM   11  C   UNL     1       8.643   1.832  22.214  1.00  0.00     0.289 C 
HETATM   12  O   UNL     1       9.232   1.740  21.226  1.00  0.00    -0.259 OA
HETATM   13  N   UNL     1       8.891   1.420  23.439  1.00  0.00    -0.314 N 
ATOM     14  HN  UNL     1       8.207   1.562  24.182  1.00  0.00     0.170 HD
BRANCH  13  15
HETATM   15  C   UNL     1       9.986   0.847  23.679  1.00  0.00     0.072 A 
HETATM   16  C   UNL     1      10.438  -0.410  23.815  1.00  0.00     0.119 A 
HETATM   17  N   UNL     1      11.237  -1.269  23.974  1.00  0.00    -0.373 N 
HETATM   18  C   UNL     1      12.309  -0.362  24.223  1.00  0.00     0.089 A 
ATOM     19  HN  UNL     1      11.180  -2.287  23.944  1.00  0.00     0.164 HD
HETATM   20  C   UNL     1      12.270   0.823  24.142  1.00  0.00     0.043 A 
HETATM   21  C   UNL     1      11.268   1.692  23.892  1.00  0.00     0.063 A 
HETATM   22 CL   UNL     1      11.288   3.263  23.869  1.00  0.00    -0.082 Cl
ENDBRANCH  13  15
ENDBRANCH  10  11
ENDBRANCH   1  10
BRANCH   1  23
HETATM   23  C   UNL     1       6.631   4.682  22.452  1.00  0.00    -0.010 C 
BRANCH  23  24
HETATM   24  C   UNL     1       6.731   5.122  23.496  1.00  0.00    -0.025 C 
BRANCH  24  25
HETATM   25  C   UNL     1       7.386   5.975  24.050  1.00  0.00     0.053 C 
BRANCH  25  26
HETATM   26  C   UNL     1       8.884   5.886  23.598  1.00  0.00    -0.033 C 
HETATM   27  C   UNL     1       9.615   6.561  23.705  1.00  0.00     0.007 C 
ENDBRANCH  25  26
ENDBRANCH  24  25
ENDBRANCH  23  24
ENDBRANCH   1  23
TORSDOF 11
ENDMDL
MODEL 9
REMARK VINA RESULT:    -5.382     23.240     25.406
REMARK INTER + INTRA:         -10.637
REMARK INTER:                  -9.346
REMARK INTRA:                  -1.291
REMARK UNBOUND:                -1.793
REMARK  11 active torsions:
REMARK  status: ('A' for Active; 'I' for Inactive)
REMARK    1  A    between atoms: S_2  and  N_5 
REMARK    2  A    between atoms: N_5  and  C_7 
REMARK    3  A    between atoms: C_7  and  C_8 
REMARK    4  A    between atoms: C_8  and  C_9 
REMARK    5  A    between atoms: C_9  and  C_15 
REMARK    6  A    between atoms: C_9  and  C_10 
REMARK    7  A    between atoms: C_10  and  C_11 
REMARK    8  A    between atoms: C_11  and  C_12 
REMARK    9  A    between atoms: C_12  and  C_13 
REMARK   10  A    between atoms: C_15  and  C_16 
REMARK       I    between atoms: C_16  and  N_18 
REMARK   11  A    between atoms: N_18  and  C_20 
ROOT
HETATM    1  C   UNL     1       9.794  14.749   2.567  1.00  0.00     0.108 C 
ENDROOT
BRANCH   1   2
HETATM    2  C   UNL     1      10.268  14.971   3.738  1.00  0.00     0.011 C 
BRANCH   2   3
HETATM    3  C   UNL     1      10.775  15.659   4.602  1.00  0.00     0.097 C 
BRANCH   3   4
HETATM    4  N   UNL     1      11.006  16.622   5.178  1.00  0.00    -0.296 N 
ATOM      5  HN  UNL     1      10.859  16.584   6.186  1.00  0.00     0.177 HD
BRANCH   4   6
HETATM    6  S   UNL     1      11.550  18.068   4.577  1.00  0.00     0.226 S 
HETATM    7  C   UNL     1      11.459  19.014   5.746  1.00  0.00     0.186 C 
HETATM    8  O   UNL     1      12.909  17.959   4.096  1.00  0.00    -0.206 OA
HETATM    9  O   UNL     1      10.656  18.484   3.516  1.00  0.00    -0.206 OA
ENDBRANCH   4   6
ENDBRANCH   3   4
ENDBRANCH   2   3
ENDBRANCH   1   2
BRANCH   1  10
HETATM   10  C   UNL     1       9.058  13.887   2.914  1.00  0.00    -0.071 C 
BRANCH  10  11
HETATM   11  C   UNL     1       8.144  12.899   3.179  1.00  0.00     0.289 C 
HETATM   12  O   UNL     1       8.204  12.344   4.188  1.00  0.00    -0.259 OA
HETATM   13  N   UNL     1       7.350  12.767   2.138  1.00  0.00    -0.314 N 
ATOM     14  HN  UNL     1       7.492  13.335   1.303  1.00  0.00     0.170 HD
BRANCH  13  15
HETATM   15  C   UNL     1       6.412  11.929   2.188  1.00  0.00     0.072 A 
HETATM   16  C   UNL     1       6.216  10.641   1.866  1.00  0.00     0.119 A 
HETATM   17  N   UNL     1       5.629   9.616   1.783  1.00  0.00    -0.373 N 
HETATM   18  C   UNL     1       4.405  10.163   2.270  1.00  0.00     0.089 A 
ATOM     19  HN  UNL     1       5.900   8.681   1.477  1.00  0.00     0.164 HD
HETATM   20  C   UNL     1       4.235  11.263   2.685  1.00  0.00     0.043 A 
HETATM   21  C   UNL     1       5.037  12.345   2.770  1.00  0.00     0.063 A 
HETATM   22 CL   UNL     1       4.710  13.796   3.277  1.00  0.00    -0.082 Cl
ENDBRANCH  13  15
ENDBRANCH  10  11
ENDBRANCH   1  10
BRANCH   1  23
HETATM   23  C   UNL     1       9.186  15.779   1.481  1.00  0.00    -0.010 C 
BRANCH  23  24
HETATM   24  C   UNL     1       8.214  16.349   1.634  1.00  0.00    -0.025 C 
BRANCH  24  25
HETATM   25  C   UNL     1       7.865  17.491   1.822  1.00  0.00     0.053 C 
BRANCH  25  26
HETATM   26  C   UNL     1       7.663  18.228   0.453  1.00  0.00    -0.033 C 
HETATM   27  C   UNL     1       8.152  19.020   0.086  1.00  0.00     0.007 C 
ENDBRANCH  25  26
ENDBRANCH  24  25
ENDBRANCH  23  24
ENDBRANCH   1  23
TORSDOF 11
ENDMDL
