stable:False satoms:21 tatoms:24 sratio:0.875
  -OEChem-07092417283D

 24 23  0     0  0  0  0  0  0999 V2000
    8.1527   -0.6791   22.5785 C   0  0  0  0  0  0  0  0  0  0  0  0
   10.5357   -0.3659   21.8202 H   0  0  0  0  0  0  0  0  0  0  0  0
    8.9100   -5.9426   22.6353 H   0  0  0  0  0  0  0  0  0  0  0  0
   10.4975    0.6221   21.6296 N   0  0  0  0  0  0  0  0  0  0  0  0
    8.2851    1.7008   20.8922 C   0  0  0  0  0  0  0  0  0  0  0  0
    8.3810    1.4127   24.7291 H   0  0  0  0  0  0  0  0  0  0  0  0
   10.5424    1.2645   22.4366 H   0  0  0  0  0  0  0  0  0  0  0  0
    8.3905   -3.0232   22.5777 N   0  0  0  0  0  0  0  0  0  0  0  0
    6.7403   -1.9617   22.6654 H   0  0  0  0  0  0  0  0  0  0  0  0
    8.0130    0.5640   23.0481 C   0  0  0  0  0  0  0  0  0  0  0  0
    8.2330   -4.9423   25.0206 H   0  0  0  0  0  0  0  0  0  0  0  0
    8.6666   -4.6131   24.1706 N   0  3  0  0  0  0  0  0  0  0  0  0
    9.9382   -6.2698   24.0608 H   0  0  0  0  0  0  0  0  0  0  0  0
    7.7513   -1.8306   22.5457 N   0  0  0  0  0  0  0  0  0  0  0  0
    7.5575    1.1115   20.3183 H   0  0  0  0  0  0  0  0  0  0  0  0
    9.9819    1.0088   19.6918 H   0  0  0  0  0  0  0  0  0  0  0  0
    8.2687    2.7208   20.4830 H   0  0  0  0  0  0  0  0  0  0  0  0
    8.0220   -3.6275   23.5981 N   0  0  0  0  0  0  0  0  0  0  0  0
    9.5200   -5.4887   23.4184 C   0  0  0  0  0  0  0  0  0  0  0  0
    7.8473    1.7011   22.2397 N   0  0  0  0  0  0  0  0  0  0  0  0
    9.6444    1.0729   20.7105 C   0  3  0  0  0  0  0  0  0  0  0  0
    7.8333    0.6781   24.3215 N   0  0  0  0  0  0  0  0  0  0  0  0
    7.5572    2.5144   22.7463 H   0  0  0  0  0  0  0  0  0  0  0  0
   10.3145   -4.9172   22.9584 H   0  0  0  0  0  0  0  0  0  0  0  0
 16 21  1  0  0  0  0
  5 15  1  0  0  0  0
  5 17  1  0  0  0  0
  5 21  1  0  0  0  0
  4 21  1  0  0  0  0
  5 20  1  0  0  0  0
  2  4  1  0  0  0  0
  4  7  1  0  0  0  0
 20 23  1  0  0  0  0
 10 20  1  0  0  0  0
  8 14  1  0  0  0  0
  1 14  1  0  0  0  0
  9 14  1  0  0  0  0
  8 18  1  0  0  0  0
  1 10  1  0  0  0  0
  3 19  1  0  0  0  0
 19 24  1  0  0  0  0
 10 22  2  3  0  0  0
 13 19  1  0  0  0  0
 12 19  1  0  0  0  0
 12 18  2  0  0  0  0
 11 12  1  0  0  0  0
  6 22  1  0  0  0  0
M  CHG  2  12   1  21   1
M  END
> <Shapegauss>
-87.272369

$$$$
