stable:False satoms:21 tatoms:24 sratio:0.875
  -OEChem-08052415403D

 27 26  0     0  0  0  0  0  0999 V2000
   11.0341    2.2180   24.1446 C   0  0  0  0  0  0  0  0  0  0  0  0
   10.1373    2.0430   22.1697 H   0  0  0  0  0  0  0  0  0  0  0  0
   12.8672   -2.7734   24.0591 H   0  0  0  0  0  0  0  0  0  0  0  0
    9.5051    2.7238   21.7999 N   0  3  0  0  0  0  0  0  0  0  0  0
    8.6172    3.8427   23.9357 C   0  0  0  0  0  0  0  0  0  0  0  0
   13.0378    3.5505   24.1118 H   0  0  0  0  0  0  0  0  0  0  0  0
    9.0850    2.3712   20.9637 H   0  0  0  0  0  0  0  0  0  0  0  0
   11.8341    0.0027   24.2077 N   0  0  0  0  0  0  0  0  0  0  0  0
   11.6772    1.2885   25.6841 H   0  0  0  0  0  0  0  0  0  0  0  0
   11.0489    3.5515   24.0626 C   0  0  0  0  0  0  0  0  0  0  0  0
   13.8548   -0.9870   23.9273 N   0  0  0  0  0  0  0  0  0  0  0  0
   14.2296   -2.7705   22.9015 H   0  0  0  0  0  0  0  0  0  0  0  0
   11.4385    1.2041   24.6894 N   0  0  0  0  0  0  0  0  0  0  0  0
    8.3460    3.2238   24.8014 H   0  0  0  0  0  0  0  0  0  0  0  0
    7.8798    4.6557   23.8767 H   0  0  0  0  0  0  0  0  0  0  0  0
   13.0275   -0.1572   24.5118 N   0  0  0  0  0  0  0  0  0  0  0  0
   13.3904   -2.1910   23.2985 C   0  0  0  0  0  0  0  0  0  0  0  0
    9.9100    4.3646   24.1882 N   0  0  0  0  0  0  0  0  0  0  0  0
    8.5580    2.9758   22.7028 C   0  0  0  0  0  2  0  0  0  0  0  0
   12.2120    4.1119   24.0567 N   0  3  0  0  0  0  0  0  0  0  0  0
   10.1217    5.3362   24.3036 H   0  0  0  0  0  0  0  0  0  0  0  0
   12.6973   -1.9446   22.5058 H   0  0  0  0  0  0  0  0  0  0  0  0
   11.3123    1.9787   23.1076 H   0  0  0  0  0  0  0  0  0  0  0  0
    9.9530    2.0658   24.2787 H   0  0  0  0  0  0  0  0  0  0  0  0
   11.2657   -0.6424   23.6971 H   0  0  0  0  0  0  0  0  0  0  0  0
   10.0032    3.5659   21.5932 H   0  0  0  0  0  0  0  0  0  0  0  0
   12.2872    5.1073   23.9970 H   0  0  0  0  0  0  0  0  0  0  0  0
  5 14  1  0  0  0  0
  5 15  1  0  0  0  0
  5 19  1  0  0  0  0
  4 19  1  0  0  0  0
  5 18  1  0  0  0  0
  2  4  1  0  0  0  0
  4  7  1  0  0  0  0
 18 21  1  0  0  0  0
 10 18  1  0  0  0  0
  8 13  1  0  0  0  0
  1 13  1  0  0  0  0
  9 13  1  0  0  0  0
  8 16  1  0  0  0  0
  1 10  1  0  0  0  0
  3 17  1  0  0  0  0
 17 22  1  0  0  0  0
 10 20  2  3  0  0  0
 12 17  1  0  0  0  0
 11 17  1  0  0  0  0
 11 16  2  0  0  0  0
  6 20  1  0  0  0  0
  1 23  1  0  0  0  0
  1 24  1  0  0  0  0
  8 25  1  0  0  0  0
  4 26  1  0  0  0  0
 20 27  1  0  0  0  0
M  CHG  2   4   1  20   1
M  END
> <Chemgauss4>
-6.797162

$$$$
