stable:False satoms:21 tatoms:24 sratio:0.875
  -OEChem-08052415403D

 27 26  0     0  0  0  0  0  0999 V2000
  -10.9958    1.9466  -23.8793 C   0  0  0  0  0  0  0  0  0  0  0  0
  -10.1794    1.6692  -21.8814 H   0  0  0  0  0  0  0  0  0  0  0  0
  -13.0688   -2.9489  -24.0132 H   0  0  0  0  0  0  0  0  0  0  0  0
   -9.5286    2.3067  -21.4690 N   0  3  0  0  0  0  0  0  0  0  0  0
   -8.5124    3.4436  -23.5371 C   0  0  0  0  0  0  0  0  0  0  0  0
  -12.9329    3.3746  -23.8729 H   0  0  0  0  0  0  0  0  0  0  0  0
   -9.1561    1.9092  -20.6304 H   0  0  0  0  0  0  0  0  0  0  0  0
  -11.8987   -0.2237  -24.0392 N   0  0  0  0  0  0  0  0  0  0  0  0
  -11.6277    1.0961  -25.4683 H   0  0  0  0  0  0  0  0  0  0  0  0
  -10.9493    3.2763  -23.7559 C   0  0  0  0  0  0  0  0  0  0  0  0
  -13.9734   -1.1207  -23.8592 N   0  0  0  0  0  0  0  0  0  0  0  0
  -14.4699   -2.9133  -22.9032 H   0  0  0  0  0  0  0  0  0  0  0  0
  -11.4288    0.9705  -24.4691 N   0  0  0  0  0  0  0  0  0  0  0  0
   -8.2407    2.8381  -24.4121 H   0  0  0  0  0  0  0  0  0  0  0  0
   -7.7394    4.2172  -23.4274 H   0  0  0  0  0  0  0  0  0  0  0  0
  -13.0868   -0.3156  -24.3887 N   0  0  0  0  0  0  0  0  0  0  0  0
  -13.5902   -2.3643  -23.2530 C   0  0  0  0  0  0  0  0  0  0  0  0
   -9.7688    4.0357  -23.8170 N   0  0  0  0  0  0  0  0  0  0  0  0
   -8.5390    2.5386  -22.3308 C   0  0  0  0  0  2  0  0  0  0  0  0
  -12.0836    3.8927  -23.7721 N   0  3  0  0  0  0  0  0  0  0  0  0
   -9.9293    5.0196  -23.9089 H   0  0  0  0  0  0  0  0  0  0  0  0
  -12.9147   -2.1760  -22.4297 H   0  0  0  0  0  0  0  0  0  0  0  0
  -11.3219    1.6906  -22.8604 H   0  0  0  0  0  0  0  0  0  0  0  0
   -9.9192    1.7456  -23.9811 H   0  0  0  0  0  0  0  0  0  0  0  0
  -11.3806   -0.9109  -23.5300 H   0  0  0  0  0  0  0  0  0  0  0  0
   -9.9927    3.1658  -21.2531 H   0  0  0  0  0  0  0  0  0  0  0  0
  -12.1129    4.8884  -23.6838 H   0  0  0  0  0  0  0  0  0  0  0  0
  5 14  1  0  0  0  0
  5 15  1  0  0  0  0
  5 19  1  0  0  0  0
  4 19  1  0  0  0  0
  5 18  1  0  0  0  0
  2  4  1  0  0  0  0
  4  7  1  0  0  0  0
 18 21  1  0  0  0  0
 10 18  1  0  0  0  0
  8 13  1  0  0  0  0
  1 13  1  0  0  0  0
  9 13  1  0  0  0  0
  8 16  1  0  0  0  0
  1 10  1  0  0  0  0
  3 17  1  0  0  0  0
 17 22  1  0  0  0  0
 10 20  2  3  0  0  0
 12 17  1  0  0  0  0
 11 17  1  0  0  0  0
 11 16  2  0  0  0  0
  6 20  1  0  0  0  0
  1 23  1  0  0  0  0
  1 24  1  0  0  0  0
  8 25  1  0  0  0  0
  4 26  1  0  0  0  0
 20 27  1  0  0  0  0
M  CHG  2   4   1  20   1
M  END
> <Chemgauss4>
-6.537796

$$$$
