stable:False satoms:18 tatoms:24 sratio:0.75
  -OEChem-08052419233D

 23 23  0     1  0  0  0  0  0999 V2000
    9.1911   -2.5495   23.0030 O   0  0  0  0  0  0  0  0  0  0  0  0
    9.0196    3.0318   23.6574 O   0  0  0  0  0  0  0  0  0  0  0  0
    9.5184   -1.5568   23.5635 C   0  0  0  0  0  0  0  0  0  0  0  0
    8.6609   -0.7314   24.1192 O   0  5  0  0  0  0  0  0  0  0  0  0
   10.8542   -1.3132   23.6935 O   0  0  0  0  0  0  0  0  0  0  0  0
   12.8794   -0.0381   24.0113 O   0  0  0  0  0  0  0  0  0  0  0  0
   11.2106    0.0232   25.2256 H   0  0  0  0  0  0  0  0  0  0  0  0
    9.2055    2.7652   22.7466 H   0  0  0  0  0  0  0  0  0  0  0  0
   11.5033   -0.1258   24.1824 C   0  0  1  0  0  0  0  0  0  0  0  0
    9.9009    4.9110   24.6689 H   0  0  0  0  0  0  0  0  0  0  0  0
    9.5262    0.7959   21.9111 C   0  0  0  0  0  2  0  0  0  0  0  0
   10.6711    4.1632   24.5502 C   0  0  0  0  0  0  0  0  0  0  0  0
   10.7077    0.7571   22.0694 C   0  0  1  0  0  0  0  0  0  0  0  0
   10.0411    1.8521   21.4574 O   0  0  0  0  0  0  0  0  0  0  0  0
   13.3324   -1.9793   24.3844 H   0  0  0  0  0  0  0  0  0  0  0  0
   11.3160    0.9787   23.4237 N   0  3  0  0  0  0  0  0  0  0  0  0
   11.2986    2.0440   24.0788 N   0  0  0  0  0  0  0  0  0  0  0  0
   14.6986   -0.9778   23.8792 H   0  0  0  0  0  0  0  0  0  0  0  0
   13.6507   -1.1926   23.7149 C   0  0  0  0  0  0  0  0  0  0  0  0
   13.4829   -1.5094   22.6923 H   0  0  0  0  0  0  0  0  0  0  0  0
   11.4307    0.0577   21.5742 H   0  0  0  0  0  0  0  0  0  0  0  0
   10.3880    3.0199   23.9989 C   0  0  0  0  0  0  0  0  0  0  0  0
   11.6765    4.3650   24.8893 H   0  0  0  0  0  0  0  0  0  0  0  0
 18 19  1  0  0  0  0
 15 19  1  0  0  0  0
 19 20  1  0  0  0  0
  6 19  1  0  0  0  0
  6  9  1  0  0  0  0
  7  9  1  0  0  0  0
  5  9  1  0  0  0  0
  9 16  1  0  0  0  0
  3  5  1  0  0  0  0
 16 17  2  3  0  0  0
 17 22  1  0  0  0  0
 13 16  1  0  0  0  0
 12 22  2  0  0  0  0
 10 12  1  0  0  0  0
 13 21  1  0  0  0  0
  2 22  1  0  0  0  0
  1  3  2  0  0  0  0
  3  4  1  0  0  0  0
 13 14  1  0  0  0  0
 11 13  1  0  0  0  0
  2  8  1  0  0  0  0
 11 14  1  0  0  0  0
 12 23  1  0  0  0  0
M  CHG  2   4  -1  16   1
M  END
> <Chemgauss4>
-5.644464

$$$$
