stable:False satoms:18 tatoms:24 sratio:0.75
  -OEChem-08052419233D

 23 23  0     1  0  0  0  0  0999 V2000
   -8.8975   -2.2260  -23.0262 O   0  0  0  0  0  0  0  0  0  0  0  0
   -9.5421    3.3506  -23.3329 O   0  0  0  0  0  0  0  0  0  0  0  0
   -9.3663   -1.2585  -23.5271 C   0  0  0  0  0  0  0  0  0  0  0  0
   -8.6386   -0.2840  -24.0232 O   0  5  0  0  0  0  0  0  0  0  0  0
  -10.7234   -1.2044  -23.6534 O   0  0  0  0  0  0  0  0  0  0  0  0
  -12.9130   -0.2204  -23.9095 O   0  0  0  0  0  0  0  0  0  0  0  0
  -11.2715    0.1589  -25.1031 H   0  0  0  0  0  0  0  0  0  0  0  0
   -9.6868    3.0034  -22.4419 H   0  0  0  0  0  0  0  0  0  0  0  0
  -11.5390   -0.0960  -24.0736 C   0  0  1  0  0  0  0  0  0  0  0  0
  -10.6885    5.1409  -24.2339 H   0  0  0  0  0  0  0  0  0  0  0  0
   -9.7165    0.9602  -21.7326 C   0  0  0  0  0  2  0  0  0  0  0  0
  -11.3414    4.2830  -24.1684 C   0  0  0  0  0  0  0  0  0  0  0  0
  -10.8798    0.7598  -21.9033 C   0  0  1  0  0  0  0  0  0  0  0  0
  -10.3798    1.8997  -21.2190 O   0  0  0  0  0  0  0  0  0  0  0  0
  -13.0783   -2.1797  -24.4058 H   0  0  0  0  0  0  0  0  0  0  0  0
  -11.5145    0.9745  -23.2466 N   0  3  0  0  0  0  0  0  0  0  0  0
  -11.6528    2.0698  -23.8344 N   0  0  0  0  0  0  0  0  0  0  0  0
  -14.5757   -1.4214  -23.8516 H   0  0  0  0  0  0  0  0  0  0  0  0
  -13.5076   -1.4911  -23.6917 C   0  0  0  0  0  0  0  0  0  0  0  0
  -13.2951   -1.8433  -22.6893 H   0  0  0  0  0  0  0  0  0  0  0  0
  -11.4929   -0.0670  -21.4586 H   0  0  0  0  0  0  0  0  0  0  0  0
  -10.8943    3.1610  -23.6864 C   0  0  0  0  0  0  0  0  0  0  0  0
  -12.3655    4.3570  -24.5032 H   0  0  0  0  0  0  0  0  0  0  0  0
 18 19  1  0  0  0  0
 15 19  1  0  0  0  0
 19 20  1  0  0  0  0
  6 19  1  0  0  0  0
  6  9  1  0  0  0  0
  7  9  1  0  0  0  0
  5  9  1  0  0  0  0
  9 16  1  0  0  0  0
  3  5  1  0  0  0  0
 16 17  2  3  0  0  0
 17 22  1  0  0  0  0
 13 16  1  0  0  0  0
 12 22  2  0  0  0  0
 10 12  1  0  0  0  0
 13 21  1  0  0  0  0
  2 22  1  0  0  0  0
  1  3  2  0  0  0  0
  3  4  1  0  0  0  0
 13 14  1  0  0  0  0
 11 13  1  0  0  0  0
  2  8  1  0  0  0  0
 11 14  1  0  0  0  0
 12 23  1  0  0  0  0
M  CHG  2   4  -1  16   1
M  END
> <Chemgauss4>
-5.939298

$$$$
