REMARK  8 active torsions:
REMARK  status: ('A' for Active; 'I' for Inactive)
REMARK    1  A    between atoms: S_2  and  N_5 
REMARK    2  A    between atoms: C_7  and  C_8 
REMARK    3  A    between atoms: C_9  and  C_10 
REMARK    4  A    between atoms: C_10  and  C_11 
REMARK    5  A    between atoms: C_11  and  C_12 
REMARK    6  A    between atoms: C_12  and  C_13 
REMARK    7  A    between atoms: C_15  and  C_16 
REMARK       I    between atoms: C_16  and  N_18 
REMARK    8  A    between atoms: N_18  and  C_20 
ROOT
HETATM    1  C   UNL     1       9.402  -1.958  23.533  1.00  0.00    -0.017 A 
HETATM    2  C   UNL     1      10.289  -1.061  23.311  1.00  0.00     0.082 A 
HETATM    3  C   UNL     1       9.698  -0.609  22.396  1.00  0.00     0.031 A 
ENDROOT
BRANCH   3   4
HETATM    4  C   UNL     1       9.062   0.071  21.415  1.00  0.00     0.253 C 
HETATM    5  O   UNL     1       9.559   1.039  21.005  1.00  0.00    -0.268 OA
HETATM    6  N   UNL     1       7.939  -0.515  21.076  1.00  0.00    -0.321 N 
ATOM      7  HN  UNL     1       7.639  -1.346  21.585  1.00  0.00     0.169 HD
BRANCH   6   8
HETATM    8  C   UNL     1       7.222  -0.079  20.139  1.00  0.00     0.056 A 
HETATM    9  C   UNL     1       7.277  -0.002  18.851  1.00  0.00     0.117 A 
HETATM   10  N   UNL     1       6.769   0.330  17.694  1.00  0.00    -0.373 N 
HETATM   11  C   UNL     1       5.706   0.866  18.232  1.00  0.00     0.088 A 
ATOM     12  HN  UNL     1       7.084   0.214  16.731  1.00  0.00     0.164 HD
HETATM   13  C   UNL     1       5.273   0.961  19.386  1.00  0.00     0.026 A 
HETATM   14  C   UNL     1       5.817   0.586  20.523  1.00  0.00    -0.033 A 
HETATM   15  C   UNL     1       5.315   0.669  21.969  1.00  0.00     0.050 C 
ENDBRANCH   6   8
ENDBRANCH   3   4
BRANCH   1  16
HETATM   16  C   UNL     1       8.997  -2.941  24.131  1.00  0.00     0.108 C 
HETATM   17  N   UNL     1       8.098  -3.601  24.649  1.00  0.00    -0.295 N 
ATOM     18  HN  UNL     1       7.232  -3.702  24.119  1.00  0.00     0.177 HD
BRANCH  17  19
HETATM   19  S   UNL     1       8.164  -4.327  26.100  1.00  0.00     0.226 S 
HETATM   20  C   UNL     1       6.594  -4.836  26.445  1.00  0.00     0.186 C 
HETATM   21  O   UNL     1       9.021  -5.512  26.088  1.00  0.00    -0.206 OA
HETATM   22  O   UNL     1       8.591  -3.451  27.155  1.00  0.00    -0.206 OA
ENDBRANCH  17  19
ENDBRANCH   1  16
BRANCH   2  23
HETATM   23  C   UNL     1      11.051   0.001  24.315  1.00  0.00    -0.016 C 
BRANCH  23  24
HETATM   24  C   UNL     1      12.097   0.297  24.260  1.00  0.00    -0.026 C 
BRANCH  24  25
HETATM   25  C   UNL     1      13.122  -0.140  23.503  1.00  0.00     0.053 C 
BRANCH  25  26
HETATM   26  C   UNL     1      12.698  -1.346  22.620  1.00  0.00    -0.033 C 
HETATM   27  C   UNL     1      11.823  -1.733  22.499  1.00  0.00     0.007 C 
ENDBRANCH  25  26
ENDBRANCH  24  25
ENDBRANCH  23  24
ENDBRANCH   2  23
TORSDOF 8
