stable:False satoms:8 tatoms:24 sratio:0.3333333333333333
  -OEChem-07092417493D

 24 25  0     1  0  0  0  0  0999 V2000
    6.5941   -4.8364   26.4455 C   0  0  0  0  0  0  0  0  0  0  0  0
    8.1643   -4.3273   26.1002 S   0  0  0  0  0  0  0  0  0  0  0  0
    9.0210   -5.5116   26.0885 O   0  0  0  0  0  0  0  0  0  0  0  0
    8.5915   -3.4508   27.1554 O   0  0  0  0  0  0  0  0  0  0  0  0
    8.0985   -3.6014   24.6494 N   0  0  0  0  0  0  0  0  0  0  0  0
    8.9973   -2.9409   24.1305 C   0  0  0  0  0  0  0  0  0  0  0  0
    9.4023   -1.9576   23.5327 C   0  0  0  0  0  0  0  0  0  0  0  0
   10.2885   -1.0607   23.3113 C   0  0  2  0  0  0  0  0  0  0  0  0
   11.0506    0.0013   24.3151 C   0  0  0  0  0  0  0  0  0  0  0  0
   12.0965    0.2971   24.2601 C   0  0  0  0  0  0  0  0  0  0  0  0
   13.1221   -0.1403   23.5027 C   0  0  0  0  0  0  0  0  0  0  0  0
   12.6981   -1.3462   22.6203 C   0  0  0  0  0  0  0  0  0  0  0  0
   11.8226   -1.7330   22.4987 C   0  0  0  0  0  0  0  0  0  0  0  0
    9.6979   -0.6086   22.3963 C   0  0  2  0  0  0  0  0  0  0  0  0
    9.0620    0.0710   21.4149 C   0  0  0  0  0  0  0  0  0  0  0  0
    9.5586    1.0393   21.0049 O   0  0  0  0  0  0  0  0  0  0  0  0
    7.9386   -0.5148   21.0757 N   0  0  0  0  0  0  0  0  0  0  0  0
    7.2223   -0.0792   20.1390 C   0  0  0  0  0  0  0  0  0  0  0  0
    7.2774   -0.0020   18.8510 C   0  0  0  0  0  0  0  0  0  0  0  0
    6.7688    0.3299   17.6940 N   0  0  0  0  0  0  0  0  0  0  0  0
    5.7061    0.8661   18.2324 C   0  0  0  0  0  0  0  0  0  0  0  0
    5.2728    0.9610   19.3860 C   0  0  0  0  0  0  0  0  0  0  0  0
    5.8169    0.5863   20.5231 C   0  0  0  0  0  0  0  0  0  0  0  0
    5.3151    0.6687   21.9689 C   0  0  0  0  0  0  0  0  0  0  0  0
 20 21  2  0  0  0  0
 19 20  1  0  0  0  0
 21 22  1  0  0  0  0
 18 19  2  0  0  0  0
 22 23  2  0  0  0  0
 18 23  1  0  0  0  0
 17 18  1  0  0  0  0
 23 24  1  0  0  0  0
 15 16  2  0  0  0  0
 15 17  1  0  0  0  0
 14 15  1  0  0  0  0
  8 14  1  0  0  0  0
  7 14  1  0  0  0  0
 12 13  2  0  0  0  0
 11 12  1  0  0  0  0
  7  8  1  0  0  0  0
  8  9  1  0  0  0  0
 10 11  1  0  0  0  0
  6  7  2  3  0  0  0
  5  6  1  0  0  0  0
  9 10  2  0  0  0  0
  2  5  1  0  0  0  0
  2  3  2  0  0  0  0
  1  2  1  0  0  0  0
  2  4  2  0  0  0  0
M  END
> <Shapegauss>
-286.040894

$$$$
