stable:False satoms:23 tatoms:24 sratio:0.9583333333333334
  -OEChem-07092417323D

 24 23  0     1  0  0  0  0  0999 V2000
    7.6619   -2.7968   25.3943 N   0  5  0  0  0  0  0  0  0  0  0  0
    9.2643   -0.6393   23.7502 H   0  0  0  0  0  0  0  0  0  0  0  0
    8.5708   -2.6872   24.9320 H   0  0  0  0  0  0  0  0  0  0  0  0
   11.2235   -2.1044   24.3112 H   0  0  0  0  0  0  0  0  0  0  0  0
    6.7356   -2.3287   24.5814 N   0  0  0  0  0  0  0  0  0  0  0  0
    8.2544   -2.8311   22.4529 H   0  0  0  0  0  0  0  0  0  0  0  0
    7.3968   -1.2438   21.2204 C   0  0  3  0  0  0  0  0  0  0  0  0
    6.7872   -1.7755   23.4402 C   0  3  0  0  0  0  0  0  0  0  0  0
   11.4671   -1.6090   23.3571 C   0  0  0  0  0  0  0  0  0  0  0  0
   12.3342   -2.0584   22.8668 H   0  0  0  0  0  0  0  0  0  0  0  0
   10.3996   -1.7698   22.4656 O   0  0  0  0  0  0  0  0  0  0  0  0
    7.9613   -1.7764   22.5083 C   0  0  2  0  0  0  0  0  0  0  0  0
   11.7384   -0.5589   23.5466 H   0  0  0  0  0  0  0  0  0  0  0  0
    7.7343    0.7420   22.6018 H   0  0  0  0  0  0  0  0  0  0  0  0
    9.3534    0.2541   21.7222 C   0  0  0  0  0  0  0  0  0  0  0  0
   10.4006    0.5782   21.7840 H   0  0  0  0  0  0  0  0  0  0  0  0
    9.2493   -0.9612   22.6958 C   0  0  2  0  0  0  0  0  0  0  0  0
    9.1905    0.0813   20.6322 H   0  0  0  0  0  0  0  0  0  0  0  0
    8.7075   -1.9755   20.1664 H   0  0  0  0  0  0  0  0  0  0  0  0
    7.6792   -1.7838   20.1024 N   0  5  0  0  0  0  0  0  0  0  0  0
    5.8712   -1.3015   23.0373 H   0  0  0  0  0  0  0  0  0  0  0  0
    8.3797    1.2148   22.0735 O   0  0  0  0  0  0  0  0  0  0  0  0
    6.4926   -0.1713   21.2671 O   0  0  0  0  0  0  0  0  0  0  0  0
    6.7305    0.2119   20.3869 H   0  0  0  0  0  0  0  0  0  0  0  0
 19 20  1  0  0  0  0
  7 20  1  0  0  0  0
 23 24  1  0  0  0  0
 15 18  1  0  0  0  0
  7 23  1  0  0  0  0
  7 12  1  0  0  0  0
 15 16  1  0  0  0  0
 15 22  1  0  0  0  0
 15 17  1  0  0  0  0
 14 22  1  0  0  0  0
  6 12  1  0  0  0  0
 11 17  1  0  0  0  0
  9 11  1  0  0  0  0
 12 17  1  0  0  0  0
  8 12  1  0  0  0  0
  2 17  1  0  0  0  0
  9 10  1  0  0  0  0
  8 21  1  0  0  0  0
  9 13  1  0  0  0  0
  4  9  1  0  0  0  0
  5  8  1  0  0  0  0
  1  5  1  0  0  0  0
  1  3  1  0  0  0  0
M  CHG  3   1  -1   8   1  20  -1
M  END
> <Shapegauss>
-100.834785

$$$$
