stable:False satoms:23 tatoms:24 sratio:0.9583333333333334
  -OEChem-08052420203D

 28 27  0     1  0  0  0  0  0999 V2000
   13.4910    4.6812   23.8323 N   0  0  0  0  0  0  0  0  0  0  0  0
   12.2295    2.0358   22.6765 H   0  0  0  0  0  0  0  0  0  0  0  0
   14.1148    5.4627   23.8209 H   0  0  0  0  0  0  0  0  0  0  0  0
   13.8830    0.9340   24.2100 H   0  0  0  0  0  0  0  0  0  0  0  0
   12.2801    5.0796   23.4962 N   0  0  0  0  0  0  0  0  0  0  0  0
   11.1677    3.1434   24.9465 H   0  0  0  0  0  0  0  0  0  0  0  0
    9.3612    2.9970   23.7262 C   0  0  3  0  0  0  0  0  0  0  0  0
   11.1738    4.4702   23.3712 C   0  0  0  0  0  2  0  0  0  0  0  0
   13.0350    0.2366   24.1122 C   0  0  0  0  0  0  0  0  0  0  0  0
   13.0732   -0.5678   24.8509 H   0  0  0  0  0  0  0  0  0  0  0  0
   11.8397    0.9230   24.3579 O   0  0  0  0  0  0  0  0  0  0  0  0
   10.8511    3.1043   23.8978 C   0  0  2  0  0  0  0  0  0  0  0  0
   13.0751   -0.2555   23.1281 H   0  0  0  0  0  0  0  0  0  0  0  0
   10.2606    2.5777   21.4944 H   0  0  0  0  0  0  0  0  0  0  0  0
   10.2829    0.9821   22.5368 C   0  0  0  0  0  0  0  0  0  0  0  0
   10.7042   -0.0239   22.4106 H   0  0  0  0  0  0  0  0  0  0  0  0
   11.3717    1.7799   23.3202 C   0  0  2  0  0  0  0  0  0  0  0  0
    9.2974    0.8001   23.0270 H   0  0  0  0  0  0  0  0  0  0  0  0
    9.1952    2.2146   25.4086 H   0  0  0  0  0  0  0  0  0  0  0  0
    8.6229    2.5209   24.6479 N   0  3  0  0  0  0  0  0  0  0  0  0
    9.9607    1.6784   21.3512 O   0  0  0  0  0  0  0  0  0  0  0  0
    8.7754    3.4920   22.5506 O   0  0  0  0  0  0  0  0  0  0  0  0
    8.0155    2.8592   22.5312 H   0  0  0  0  0  0  0  0  0  0  0  0
   13.4689    4.2859   24.7506 H   0  0  0  0  0  0  0  0  0  0  0  0
   12.4159    5.4980   22.5982 H   0  0  0  0  0  0  0  0  0  0  0  0
    9.4694    2.0007   23.2727 H   0  0  0  0  0  0  0  0  0  0  0  0
    8.1012    1.7463   24.2904 H   0  0  0  0  0  0  0  0  0  0  0  0
    7.9925    3.2278   24.9686 H   0  0  0  0  0  0  0  0  0  0  0  0
 19 20  1  0  0  0  0
  7 20  1  0  0  0  0
 22 23  1  0  0  0  0
 15 18  1  0  0  0  0
  7 22  1  0  0  0  0
  7 12  1  0  0  0  0
 15 16  1  0  0  0  0
 15 21  1  0  0  0  0
 15 17  1  0  0  0  0
 14 21  1  0  0  0  0
  6 12  1  0  0  0  0
 11 17  1  0  0  0  0
  9 11  1  0  0  0  0
 12 17  1  0  0  0  0
  8 12  1  0  0  0  0
  2 17  1  0  0  0  0
  9 10  1  0  0  0  0
  9 13  1  0  0  0  0
  4  9  1  0  0  0  0
  5  8  1  0  0  0  0
  1  5  1  0  0  0  0
  1  3  1  0  0  0  0
  1 24  1  0  0  0  0
  5 25  1  0  0  0  0
  7 26  1  0  0  0  0
 20 27  1  0  0  0  0
 20 28  1  0  0  0  0
M  CHG  1  20   1
M  END
> <Chemgauss4>
-4.906680

$$$$
