stable:False satoms:23 tatoms:24 sratio:0.9583333333333334
  -OEChem-08052420203D

 28 27  0     1  0  0  0  0  0999 V2000
  -13.4109    4.7721  -23.7202 N   0  0  0  0  0  0  0  0  0  0  0  0
  -11.6165    2.3924  -22.6989 H   0  0  0  0  0  0  0  0  0  0  0  0
  -14.1612    5.4296  -23.6517 H   0  0  0  0  0  0  0  0  0  0  0  0
  -13.1566    1.0159  -24.1247 H   0  0  0  0  0  0  0  0  0  0  0  0
  -12.2687    5.3797  -23.4669 N   0  0  0  0  0  0  0  0  0  0  0  0
  -10.9400    3.6760  -25.0230 H   0  0  0  0  0  0  0  0  0  0  0  0
   -9.0509    3.8524  -23.9394 C   0  0  3  0  0  0  0  0  0  0  0  0
  -11.0654    4.9774  -23.4317 C   0  0  0  0  0  2  0  0  0  0  0  0
  -12.1931    0.4809  -24.0992 C   0  0  0  0  0  0  0  0  0  0  0  0
  -12.1422   -0.3160  -24.8452 H   0  0  0  0  0  0  0  0  0  0  0  0
  -11.1606    1.3702  -24.4206 O   0  0  0  0  0  0  0  0  0  0  0  0
  -10.5447    3.6922  -24.0008 C   0  0  2  0  0  0  0  0  0  0  0  0
  -12.0719   -0.0122  -23.1223 H   0  0  0  0  0  0  0  0  0  0  0  0
   -9.6934    3.2751  -21.6547 H   0  0  0  0  0  0  0  0  0  0  0  0
   -9.5086    1.7031  -22.7167 C   0  0  0  0  0  0  0  0  0  0  0  0
   -9.7336    0.6378  -22.5754 H   0  0  0  0  0  0  0  0  0  0  0  0
  -10.7770    2.2950  -23.4070 C   0  0  2  0  0  0  0  0  0  0  0  0
   -8.5455    1.7009  -23.2798 H   0  0  0  0  0  0  0  0  0  0  0  0
   -8.8735    3.1154  -25.6410 H   0  0  0  0  0  0  0  0  0  0  0  0
   -8.3100    3.5175  -24.9193 N   0  3  0  0  0  0  0  0  0  0  0  0
   -9.2285    2.4436  -21.5473 O   0  0  0  0  0  0  0  0  0  0  0  0
   -8.4771    4.4419  -22.8021 O   0  0  0  0  0  0  0  0  0  0  0  0
   -7.6174    3.9549  -22.8474 H   0  0  0  0  0  0  0  0  0  0  0  0
  -13.3868    4.3889  -24.6435 H   0  0  0  0  0  0  0  0  0  0  0  0
  -12.4098    5.7655  -22.5551 H   0  0  0  0  0  0  0  0  0  0  0  0
   -8.9462    2.8519  -23.4943 H   0  0  0  0  0  0  0  0  0  0  0  0
   -7.6338    2.8478  -24.6123 H   0  0  0  0  0  0  0  0  0  0  0  0
   -7.8410    4.3262  -25.2742 H   0  0  0  0  0  0  0  0  0  0  0  0
 19 20  1  0  0  0  0
  7 20  1  0  0  0  0
 22 23  1  0  0  0  0
 15 18  1  0  0  0  0
  7 22  1  0  0  0  0
  7 12  1  0  0  0  0
 15 16  1  0  0  0  0
 15 21  1  0  0  0  0
 15 17  1  0  0  0  0
 14 21  1  0  0  0  0
  6 12  1  0  0  0  0
 11 17  1  0  0  0  0
  9 11  1  0  0  0  0
 12 17  1  0  0  0  0
  8 12  1  0  0  0  0
  2 17  1  0  0  0  0
  9 10  1  0  0  0  0
  9 13  1  0  0  0  0
  4  9  1  0  0  0  0
  5  8  1  0  0  0  0
  1  5  1  0  0  0  0
  1  3  1  0  0  0  0
  1 24  1  0  0  0  0
  5 25  1  0  0  0  0
  7 26  1  0  0  0  0
 20 27  1  0  0  0  0
 20 28  1  0  0  0  0
M  CHG  1  20   1
M  END
> <Chemgauss4>
-5.122745

$$$$
