MODEL 1
REMARK VINA RESULT:    -5.952      0.000      0.000
REMARK INTER + INTRA:          -7.461
REMARK INTER:                  -7.170
REMARK INTRA:                  -0.290
REMARK UNBOUND:                -0.290
REMARK  4 active torsions:
REMARK  status: ('A' for Active; 'I' for Inactive)
REMARK       I    between atoms: C_2  and  N_5 
REMARK    1  A    between atoms: C_2  and  O_4 
REMARK       I    between atoms: N_5  and  C_8 
REMARK    2  A    between atoms: C_7  and  C_13 
REMARK    3  A    between atoms: C_8  and  C_12 
REMARK    4  A    between atoms: O_9  and  C_12 
ROOT
HETATM    1  C   UNL     1       9.410  -0.577  22.051  1.00  0.00     0.062 C 
HETATM    2  C   UNL     1       8.463   0.163  21.362  1.00  0.00     0.138 C 
ENDROOT
BRANCH   2   3
HETATM    3  C   UNL     1       7.332  -0.408  20.617  1.00  0.00     0.283 C 
HETATM    4  N   UNL     1       7.017  -0.056  19.304  1.00  0.00    -0.268 N 
HETATM    5  C   UNL     1       5.949  -0.400  18.525  1.00  0.00     0.256 C 
ATOM      6  HN  UNL     1       7.695   0.558  18.852  1.00  0.00     0.175 HD
HETATM    7  O   UNL     1       5.546   0.368  17.662  1.00  0.00    -0.632 OA
HETATM    8  O   UNL     1       6.682  -1.194  21.275  1.00  0.00    -0.265 OA
BRANCH   5   9
HETATM    9  O   UNL     1       5.359  -1.605  18.705  1.00  0.00    -0.760 OA
HETATM   10  H   UNL     1       5.688  -2.131  17.910  1.00  0.00     0.169 HD
ENDBRANCH   5   9
ENDBRANCH   2   3
BRANCH   2  11
HETATM   11  O   UNL     1       8.663   1.460  21.265  1.00  0.00    -0.351 OA
HETATM   12  C   UNL     1       8.164   2.478  22.080  1.00  0.00     0.210 C 
ENDBRANCH   2  11
BRANCH   1  13
HETATM   13  C   UNL     1      10.737  -0.280  21.911  1.00  0.00     0.128 C 
HETATM   14  N   UNL     1      11.586  -0.756  22.804  1.00  0.00    -0.211 N 
HETATM   15  C   UNL     1      12.081  -0.243  23.948  1.00  0.00     0.152 C 
HETATM   16  O   UNL     1      12.540  -1.769  22.424  1.00  0.00    -0.102 OA
HETATM   17  C   UNL     1      13.355  -0.743  24.091  1.00  0.00     0.198 C 
HETATM   18  O   UNL     1      13.465  -1.847  23.367  1.00  0.00    -0.184 OA
ENDBRANCH   1  13
TORSDOF 4
ENDMDL
MODEL 2
REMARK VINA RESULT:    -5.638      4.431      5.884
REMARK INTER + INTRA:          -7.082
REMARK INTER:                  -6.671
REMARK INTRA:                  -0.411
REMARK UNBOUND:                -0.290
REMARK  4 active torsions:
REMARK  status: ('A' for Active; 'I' for Inactive)
REMARK       I    between atoms: C_2  and  N_5 
REMARK    1  A    between atoms: C_2  and  O_4 
REMARK       I    between atoms: N_5  and  C_8 
REMARK    2  A    between atoms: C_7  and  C_13 
REMARK    3  A    between atoms: C_8  and  C_12 
REMARK    4  A    between atoms: O_9  and  C_12 
ROOT
HETATM    1  C   UNL     1       8.563  -1.438  24.347  1.00  0.00     0.062 C 
HETATM    2  C   UNL     1       8.270  -2.793  24.331  1.00  0.00     0.138 C 
ENDROOT
BRANCH   2   3
HETATM    3  C   UNL     1       8.174  -3.643  25.526  1.00  0.00     0.283 C 
HETATM    4  N   UNL     1       7.444  -4.831  25.570  1.00  0.00    -0.268 N 
HETATM    5  C   UNL     1       7.161  -5.660  26.619  1.00  0.00     0.256 C 
ATOM      6  HN  UNL     1       7.058  -5.128  24.674  1.00  0.00     0.175 HD
HETATM    7  O   UNL     1       6.126  -6.311  26.625  1.00  0.00    -0.632 OA
HETATM    8  O   UNL     1       8.770  -3.186  26.479  1.00  0.00    -0.265 OA
BRANCH   5   9
HETATM    9  O   UNL     1       8.050  -5.769  27.635  1.00  0.00    -0.760 OA
HETATM   10  H   UNL     1       8.920  -5.922  27.150  1.00  0.00     0.169 HD
ENDBRANCH   5   9
ENDBRANCH   2   3
BRANCH   2  11
HETATM   11  O   UNL     1       8.198  -3.382  23.157  1.00  0.00    -0.351 OA
HETATM   12  C   UNL     1       7.102  -3.465  22.295  1.00  0.00     0.210 C 
ENDBRANCH   2  11
BRANCH   1  13
HETATM   13  C   UNL     1       9.483  -0.933  23.469  1.00  0.00     0.128 C 
HETATM   14  N   UNL     1      10.761  -1.192  23.681  1.00  0.00    -0.211 N 
HETATM   15  C   UNL     1      11.725  -0.519  24.340  1.00  0.00     0.152 C 
HETATM   16  O   UNL     1      11.481  -2.056  22.778  1.00  0.00    -0.102 OA
HETATM   17  C   UNL     1      12.910  -0.786  23.693  1.00  0.00     0.198 C 
HETATM   18  O   UNL     1      12.776  -1.907  23.000  1.00  0.00    -0.184 OA
ENDBRANCH   1  13
TORSDOF 4
ENDMDL
MODEL 3
REMARK VINA RESULT:    -5.606      1.987      6.573
REMARK INTER + INTRA:          -7.043
REMARK INTER:                  -6.722
REMARK INTRA:                  -0.321
REMARK UNBOUND:                -0.290
REMARK  4 active torsions:
REMARK  status: ('A' for Active; 'I' for Inactive)
REMARK       I    between atoms: C_2  and  N_5 
REMARK    1  A    between atoms: C_2  and  O_4 
REMARK       I    between atoms: N_5  and  C_8 
REMARK    2  A    between atoms: C_7  and  C_13 
REMARK    3  A    between atoms: C_8  and  C_12 
REMARK    4  A    between atoms: O_9  and  C_12 
ROOT
HETATM    1  C   UNL     1       8.584   0.021  22.504  1.00  0.00     0.062 C 
HETATM    2  C   UNL     1       9.138  -0.808  23.467  1.00  0.00     0.138 C 
ENDROOT
BRANCH   2   3
HETATM    3  C   UNL     1      10.514  -0.703  23.971  1.00  0.00     0.283 C 
HETATM    4  N   UNL     1      11.637  -1.073  23.230  1.00  0.00    -0.268 N 
HETATM    5  C   UNL     1      12.953  -1.149  23.591  1.00  0.00     0.256 C 
ATOM      6  HN  UNL     1      11.444  -1.329  22.262  1.00  0.00     0.175 HD
HETATM    7  O   UNL     1      13.692  -1.960  23.051  1.00  0.00    -0.632 OA
HETATM    8  O   UNL     1      10.569  -0.293  25.112  1.00  0.00    -0.265 OA
BRANCH   5   9
HETATM    9  O   UNL     1      13.430  -0.302  24.533  1.00  0.00    -0.760 OA
HETATM   10  H   UNL     1      13.728   0.490  23.985  1.00  0.00     0.169 HD
ENDBRANCH   5   9
ENDBRANCH   2   3
BRANCH   2  11
HETATM   11  O   UNL     1       8.420  -1.837  23.864  1.00  0.00    -0.351 OA
HETATM   12  C   UNL     1       8.803  -3.177  23.956  1.00  0.00     0.210 C 
ENDBRANCH   2  11
BRANCH   1  13
HETATM   13  C   UNL     1       7.864  -0.522  21.475  1.00  0.00     0.128 C 
HETATM   14  N   UNL     1       7.508   0.264  20.475  1.00  0.00    -0.211 N 
HETATM   15  C   UNL     1       6.394   0.987  20.242  1.00  0.00     0.152 C 
HETATM   16  O   UNL     1       8.096   0.083  19.170  1.00  0.00    -0.102 OA
HETATM   17  C   UNL     1       6.211   1.009  18.878  1.00  0.00     0.198 C 
HETATM   18  O   UNL     1       7.368   0.746  18.288  1.00  0.00    -0.184 OA
ENDBRANCH   1  13
TORSDOF 4
ENDMDL
MODEL 4
REMARK VINA RESULT:    -5.475      1.795      2.097
REMARK INTER + INTRA:          -6.886
REMARK INTER:                  -6.475
REMARK INTRA:                  -0.411
REMARK UNBOUND:                -0.290
REMARK  4 active torsions:
REMARK  status: ('A' for Active; 'I' for Inactive)
REMARK       I    between atoms: C_2  and  N_5 
REMARK    1  A    between atoms: C_2  and  O_4 
REMARK       I    between atoms: N_5  and  C_8 
REMARK    2  A    between atoms: C_7  and  C_13 
REMARK    3  A    between atoms: C_8  and  C_12 
REMARK    4  A    between atoms: O_9  and  C_12 
ROOT
HETATM    1  C   UNL     1       8.543  -1.083  23.075  1.00  0.00     0.062 C 
HETATM    2  C   UNL     1       8.020   0.039  22.452  1.00  0.00     0.138 C 
ENDROOT
BRANCH   2   3
HETATM    3  C   UNL     1       7.954   0.236  20.997  1.00  0.00     0.283 C 
HETATM    4  N   UNL     1       6.843  -0.098  20.223  1.00  0.00    -0.268 N 
HETATM    5  C   UNL     1       6.671  -0.089  18.867  1.00  0.00     0.256 C 
ATOM      6  HN  UNL     1       6.026  -0.398  20.755  1.00  0.00     0.175 HD
HETATM    7  O   UNL     1       5.897  -0.877  18.341  1.00  0.00    -0.632 OA
HETATM    8  O   UNL     1       8.982   0.689  20.536  1.00  0.00    -0.265 OA
BRANCH   5   9
HETATM    9  O   UNL     1       7.346   0.816  18.120  1.00  0.00    -0.760 OA
HETATM   10  H   UNL     1       6.660   1.090  17.435  1.00  0.00     0.169 HD
ENDBRANCH   5   9
ENDBRANCH   2   3
BRANCH   2  11
HETATM   11  O   UNL     1       7.674   1.050  23.220  1.00  0.00    -0.351 OA
HETATM   12  C   UNL     1       6.578   1.906  23.085  1.00  0.00     0.210 C 
ENDBRANCH   2  11
BRANCH   1  13
HETATM   13  C   UNL     1       9.397  -0.935  24.133  1.00  0.00     0.128 C 
HETATM   14  N   UNL     1      10.612  -0.472  23.899  1.00  0.00    -0.211 N 
HETATM   15  C   UNL     1      11.785  -1.088  23.651  1.00  0.00     0.152 C 
HETATM   16  O   UNL     1      10.989   0.837  24.374  1.00  0.00    -0.102 OA
HETATM   17  C   UNL     1      12.774  -0.291  24.181  1.00  0.00     0.198 C 
HETATM   18  O   UNL     1      12.306   0.942  24.309  1.00  0.00    -0.184 OA
ENDBRANCH   1  13
TORSDOF 4
ENDMDL
MODEL 5
REMARK VINA RESULT:    -5.450      2.781      3.601
REMARK INTER + INTRA:          -6.855
REMARK INTER:                  -6.535
REMARK INTRA:                  -0.320
REMARK UNBOUND:                -0.290
REMARK  4 active torsions:
REMARK  status: ('A' for Active; 'I' for Inactive)
REMARK       I    between atoms: C_2  and  N_5 
REMARK    1  A    between atoms: C_2  and  O_4 
REMARK       I    between atoms: N_5  and  C_8 
REMARK    2  A    between atoms: C_7  and  C_13 
REMARK    3  A    between atoms: C_8  and  C_12 
REMARK    4  A    between atoms: O_9  and  C_12 
ROOT
HETATM    1  C   UNL     1       9.095  -0.987  23.286  1.00  0.00     0.062 C 
HETATM    2  C   UNL     1       8.091  -1.500  22.480  1.00  0.00     0.138 C 
ENDROOT
BRANCH   2   3
HETATM    3  C   UNL     1       7.317  -2.713  22.776  1.00  0.00     0.283 C 
HETATM    4  N   UNL     1       7.778  -4.004  22.519  1.00  0.00    -0.268 N 
HETATM    5  C   UNL     1       7.145  -5.210  22.623  1.00  0.00     0.256 C 
ATOM      6  HN  UNL     1       8.747  -4.056  22.202  1.00  0.00     0.175 HD
HETATM    7  O   UNL     1       7.462  -6.136  21.889  1.00  0.00    -0.632 OA
HETATM    8  O   UNL     1       6.219  -2.472  23.235  1.00  0.00    -0.265 OA
BRANCH   5   9
HETATM    9  O   UNL     1       6.181  -5.373  23.560  1.00  0.00    -0.760 OA
HETATM   10  H   UNL     1       6.691  -5.253  24.421  1.00  0.00     0.169 HD
ENDBRANCH   5   9
ENDBRANCH   2   3
BRANCH   2  11
HETATM   11  O   UNL     1       7.907  -0.930  21.308  1.00  0.00    -0.351 OA
HETATM   12  C   UNL     1       7.067   0.140  20.986  1.00  0.00     0.210 C 
ENDBRANCH   2  11
BRANCH   1  13
HETATM   13  C   UNL     1      10.277  -0.587  22.726  1.00  0.00     0.128 C 
HETATM   14  N   UNL     1      11.404  -0.948  23.313  1.00  0.00    -0.211 N 
HETATM   15  C   UNL     1      12.182  -0.341  24.231  1.00  0.00     0.152 C 
HETATM   16  O   UNL     1      12.281  -1.896  22.670  1.00  0.00    -0.102 OA
HETATM   17  C   UNL     1      13.478  -0.726  23.971  1.00  0.00     0.198 C 
HETATM   18  O   UNL     1      13.458  -1.851  23.272  1.00  0.00    -0.184 OA
ENDBRANCH   1  13
TORSDOF 4
ENDMDL
MODEL 6
REMARK VINA RESULT:    -5.357     20.220     22.687
REMARK INTER + INTRA:          -6.743
REMARK INTER:                  -6.453
REMARK INTRA:                  -0.290
REMARK UNBOUND:                -0.290
REMARK  4 active torsions:
REMARK  status: ('A' for Active; 'I' for Inactive)
REMARK       I    between atoms: C_2  and  N_5 
REMARK    1  A    between atoms: C_2  and  O_4 
REMARK       I    between atoms: N_5  and  C_8 
REMARK    2  A    between atoms: C_7  and  C_13 
REMARK    3  A    between atoms: C_8  and  C_12 
REMARK    4  A    between atoms: O_9  and  C_12 
ROOT
HETATM    1  C   UNL     1       0.414 -16.931   9.773  1.00  0.00     0.062 C 
HETATM    2  C   UNL     1      -0.857 -16.726  10.285  1.00  0.00     0.138 C 
ENDROOT
BRANCH   2   3
HETATM    3  C   UNL     1      -1.159 -16.470  11.701  1.00  0.00     0.283 C 
HETATM    4  N   UNL     1      -0.193 -16.466  12.707  1.00  0.00    -0.268 N 
HETATM    5  C   UNL     1      -0.325 -16.365  14.063  1.00  0.00     0.256 C 
ATOM      6  HN  UNL     1       0.768 -16.553  12.377  1.00  0.00     0.175 HD
HETATM    7  O   UNL     1       0.492 -16.898  14.801  1.00  0.00    -0.632 OA
HETATM    8  O   UNL     1      -2.342 -16.295  11.906  1.00  0.00    -0.265 OA
BRANCH   5   9
HETATM    9  O   UNL     1      -1.355 -15.652  14.577  1.00  0.00    -0.760 OA
HETATM   10  H   UNL     1      -0.991 -14.712  14.578  1.00  0.00     0.169 HD
ENDBRANCH   5   9
ENDBRANCH   2   3
BRANCH   2  11
HETATM   11  O   UNL     1      -1.873 -16.898   9.467  1.00  0.00    -0.351 OA
HETATM   12  C   UNL     1      -2.348 -16.032   8.479  1.00  0.00     0.210 C 
ENDBRANCH   2  11
BRANCH   1  13
HETATM   13  C   UNL     1       0.636 -17.960   8.900  1.00  0.00     0.128 C 
HETATM   14  N   UNL     1       1.405 -18.960   9.291  1.00  0.00    -0.211 N 
HETATM   15  C   UNL     1       2.726 -19.193   9.158  1.00  0.00     0.152 C 
HETATM   16  O   UNL     1       0.833 -20.265   9.518  1.00  0.00    -0.102 OA
HETATM   17  C   UNL     1       2.883 -20.557   9.062  1.00  0.00     0.198 C 
HETATM   18  O   UNL     1       1.816 -21.148   9.580  1.00  0.00    -0.184 OA
ENDBRANCH   1  13
TORSDOF 4
ENDMDL
MODEL 7
REMARK VINA RESULT:    -5.324      4.795      5.882
REMARK INTER + INTRA:          -6.704
REMARK INTER:                  -6.294
REMARK INTRA:                  -0.410
REMARK UNBOUND:                -0.290
REMARK  4 active torsions:
REMARK  status: ('A' for Active; 'I' for Inactive)
REMARK       I    between atoms: C_2  and  N_5 
REMARK    1  A    between atoms: C_2  and  O_4 
REMARK       I    between atoms: N_5  and  C_8 
REMARK    2  A    between atoms: C_7  and  C_13 
REMARK    3  A    between atoms: C_8  and  C_12 
REMARK    4  A    between atoms: O_9  and  C_12 
ROOT
HETATM    1  C   UNL     1       8.705  -3.244  24.653  1.00  0.00     0.062 C 
HETATM    2  C   UNL     1       8.324  -2.888  23.369  1.00  0.00     0.138 C 
ENDROOT
BRANCH   2   3
HETATM    3  C   UNL     1       9.008  -1.887  22.539  1.00  0.00     0.283 C 
HETATM    4  N   UNL     1       8.341  -0.995  21.700  1.00  0.00    -0.268 N 
HETATM    5  C   UNL     1       8.828  -0.099  20.790  1.00  0.00     0.256 C 
ATOM      6  HN  UNL     1       7.324  -1.013  21.779  1.00  0.00     0.175 HD
HETATM    7  O   UNL     1       8.167   0.194  19.803  1.00  0.00    -0.632 OA
HETATM    8  O   UNL     1      10.217  -1.942  22.634  1.00  0.00    -0.265 OA
BRANCH   5   9
HETATM    9  O   UNL     1      10.035   0.474  21.006  1.00  0.00    -0.760 OA
HETATM   10  H   UNL     1       9.839   1.454  20.872  1.00  0.00     0.169 HD
ENDBRANCH   5   9
ENDBRANCH   2   3
BRANCH   2  11
HETATM   11  O   UNL     1       7.197  -3.391  22.912  1.00  0.00    -0.351 OA
HETATM   12  C   UNL     1       7.009  -4.540  22.140  1.00  0.00     0.210 C 
ENDBRANCH   2  11
BRANCH   1  13
HETATM   13  C   UNL     1       7.760  -3.346  25.637  1.00  0.00     0.128 C 
HETATM   14  N   UNL     1       7.455  -4.548  26.091  1.00  0.00    -0.211 N 
HETATM   15  C   UNL     1       6.500  -5.433  25.742  1.00  0.00     0.152 C 
HETATM   16  O   UNL     1       7.818  -4.925  27.435  1.00  0.00    -0.102 OA
HETATM   17  C   UNL     1       6.152  -6.117  26.886  1.00  0.00     0.198 C 
HETATM   18  O   UNL     1       7.140  -6.014  27.762  1.00  0.00    -0.184 OA
ENDBRANCH   1  13
TORSDOF 4
ENDMDL
MODEL 8
REMARK VINA RESULT:    -5.292      4.715      6.920
REMARK INTER + INTRA:          -6.666
REMARK INTER:                  -6.355
REMARK INTRA:                  -0.311
REMARK UNBOUND:                -0.290
REMARK  4 active torsions:
REMARK  status: ('A' for Active; 'I' for Inactive)
REMARK       I    between atoms: C_2  and  N_5 
REMARK    1  A    between atoms: C_2  and  O_4 
REMARK       I    between atoms: N_5  and  C_8 
REMARK    2  A    between atoms: C_7  and  C_13 
REMARK    3  A    between atoms: C_8  and  C_12 
REMARK    4  A    between atoms: O_9  and  C_12 
ROOT
HETATM    1  C   UNL     1       8.910  -2.424  25.396  1.00  0.00     0.062 C 
HETATM    2  C   UNL     1       8.826  -1.157  24.841  1.00  0.00     0.138 C 
ENDROOT
BRANCH   2   3
HETATM    3  C   UNL     1       9.949  -0.214  24.730  1.00  0.00     0.283 C 
HETATM    4  N   UNL     1      11.253  -0.601  24.425  1.00  0.00    -0.268 N 
HETATM    5  C   UNL     1      12.412   0.124  24.403  1.00  0.00     0.256 C 
ATOM      6  HN  UNL     1      11.361  -1.585  24.179  1.00  0.00     0.175 HD
HETATM    7  O   UNL     1      13.480  -0.419  24.647  1.00  0.00    -0.632 OA
HETATM    8  O   UNL     1       9.626   0.932  24.966  1.00  0.00    -0.265 OA
BRANCH   5   9
HETATM    9  O   UNL     1      12.363   1.439  24.085  1.00  0.00    -0.760 OA
HETATM   10  H   UNL     1      11.556   1.490  23.484  1.00  0.00     0.169 HD
ENDBRANCH   5   9
ENDBRANCH   2   3
BRANCH   2  11
HETATM   11  O   UNL     1       7.630  -0.722  24.506  1.00  0.00    -0.351 OA
HETATM   12  C   UNL     1       6.953  -0.894  23.296  1.00  0.00     0.210 C 
ENDBRANCH   2  11
BRANCH   1  13
HETATM   13  C   UNL     1       7.953  -2.842  26.279  1.00  0.00     0.128 C 
HETATM   14  N   UNL     1       7.621  -4.120  26.286  1.00  0.00    -0.211 N 
HETATM   15  C   UNL     1       6.654  -4.809  25.647  1.00  0.00     0.152 C 
HETATM   16  O   UNL     1       7.963  -4.949  27.416  1.00  0.00    -0.102 OA
HETATM   17  C   UNL     1       6.282  -5.840  26.479  1.00  0.00     0.198 C 
HETATM   18  O   UNL     1       7.262  -6.068  27.341  1.00  0.00    -0.184 OA
ENDBRANCH   1  13
TORSDOF 4
ENDMDL
MODEL 9
REMARK VINA RESULT:    -5.245     19.753     22.304
REMARK INTER + INTRA:          -6.609
REMARK INTER:                  -6.229
REMARK INTRA:                  -0.379
REMARK UNBOUND:                -0.290
REMARK  4 active torsions:
REMARK  status: ('A' for Active; 'I' for Inactive)
REMARK       I    between atoms: C_2  and  N_5 
REMARK    1  A    between atoms: C_2  and  O_4 
REMARK       I    between atoms: N_5  and  C_8 
REMARK    2  A    between atoms: C_7  and  C_13 
REMARK    3  A    between atoms: C_8  and  C_12 
REMARK    4  A    between atoms: O_9  and  C_12 
ROOT
HETATM    1  C   UNL     1       7.508  10.894   4.220  1.00  0.00     0.062 C 
HETATM    2  C   UNL     1       7.649  11.891   3.268  1.00  0.00     0.138 C 
ENDROOT
BRANCH   2   3
HETATM    3  C   UNL     1       8.647  12.968   3.325  1.00  0.00     0.283 C 
HETATM    4  N   UNL     1       8.672  14.043   2.436  1.00  0.00    -0.268 N 
HETATM    5  C   UNL     1       9.586  15.047   2.282  1.00  0.00     0.256 C 
ATOM      6  HN  UNL     1       7.877  14.088   1.798  1.00  0.00     0.175 HD
HETATM    7  O   UNL     1       9.757  15.559   1.184  1.00  0.00    -0.632 OA
HETATM    8  O   UNL     1       9.467  12.806   4.204  1.00  0.00    -0.265 OA
BRANCH   5   9
HETATM    9  O   UNL     1      10.282  15.480   3.360  1.00  0.00    -0.760 OA
HETATM   10  H   UNL     1      11.091  15.910   2.941  1.00  0.00     0.169 HD
ENDBRANCH   5   9
ENDBRANCH   2   3
BRANCH   2  11
HETATM   11  O   UNL     1       6.745  11.947   2.314  1.00  0.00    -0.351 OA
HETATM   12  C   UNL     1       6.735  11.280   1.087  1.00  0.00     0.210 C 
ENDBRANCH   2  11
BRANCH   1  13
HETATM   13  C   UNL     1       6.262  10.569   4.683  1.00  0.00     0.128 C 
HETATM   14  N   UNL     1       5.746   9.405   4.334  1.00  0.00    -0.211 N 
HETATM   15  C   UNL     1       4.942   9.039   3.316  1.00  0.00     0.152 C 
HETATM   16  O   UNL     1       5.566   8.370   5.322  1.00  0.00    -0.102 OA
HETATM   17  C   UNL     1       4.160   8.004   3.777  1.00  0.00     0.198 C 
HETATM   18  O   UNL     1       4.758   7.450   4.821  1.00  0.00    -0.184 OA
ENDBRANCH   1  13
TORSDOF 4
ENDMDL
