stable:False satoms:20 tatoms:24 sratio:0.8333333333333334
  -OEChem-07092417353D

 24 24  0     1  0  0  0  0  0999 V2000
    7.2230   -4.3975   25.5862 O   0  0  0  0  0  0  0  0  0  0  0  0
    8.3341   -3.9045   25.4444 C   0  0  0  0  0  0  0  0  0  0  0  0
    9.4401   -5.1034   26.3295 H   0  0  0  0  0  0  0  0  0  0  0  0
    9.2998   -4.1062   26.3713 O   0  0  0  0  0  0  0  0  0  0  0  0
    8.6190   -3.1645   24.3324 N   0  0  0  0  0  0  0  0  0  0  0  0
    8.5763   -1.1983   21.9794 C   0  0  0  0  0  0  0  0  0  0  0  0
    9.5015   -2.0988   24.1549 C   0  0  0  0  0  0  0  0  0  0  0  0
   10.6622   -0.5697   22.7415 O   0  0  0  0  0  0  0  0  0  0  0  0
   10.2540   -1.6998   25.0202 O   0  0  0  0  0  0  0  0  0  0  0  0
   11.8776   -0.0499   24.2629 H   0  0  0  0  0  0  0  0  0  0  0  0
   12.6785   -0.3059   22.7046 H   0  0  0  0  0  0  0  0  0  0  0  0
   12.1402   -1.7038   23.6420 H   0  0  0  0  0  0  0  0  0  0  0  0
   11.9051   -0.6781   23.3695 C   0  0  0  0  0  0  0  0  0  0  0  0
    9.5911   -1.3148   22.9145 C   0  0  3  0  0  0  0  0  0  0  0  0
    8.2600    0.0319   21.4715 C   0  0  0  0  0  0  0  0  0  0  0  0
    8.9037    0.8711   21.5749 H   0  0  0  0  0  0  0  0  0  0  0  0
    7.1562    0.1509   20.7558 N   0  0  0  0  0  0  0  0  0  0  0  0
    8.0156   -1.9883   21.5085 H   0  0  0  0  0  0  0  0  0  0  0  0
    6.9212    0.0707   19.4309 C   0  0  0  0  0  0  0  0  0  0  0  0
    7.4200   -0.5487   18.7382 H   0  0  0  0  0  0  0  0  0  0  0  0
    5.6800    1.4324   18.2576 H   0  0  0  0  0  0  0  0  0  0  0  0
    5.8797    0.9293   19.1578 C   0  0  0  0  0  0  0  0  0  0  0  0
    6.0404    0.9047   21.2718 O   0  0  0  0  0  0  0  0  0  0  0  0
    5.2048    1.1510   20.2762 O   0  0  0  0  0  0  0  0  0  0  0  0
 21 22  1  0  0  0  0
 19 20  1  0  0  0  0
 19 22  2  0  0  0  0
 22 24  1  0  0  0  0
 17 19  1  0  0  0  0
 23 24  1  0  0  0  0
 17 23  1  0  0  0  0
 15 17  1  0  0  0  0
 15 16  1  0  0  0  0
  6 15  2  0  0  0  0
  6 18  1  0  0  0  0
  6 14  1  0  0  0  0
 11 13  1  0  0  0  0
  8 14  1  0  0  0  0
  8 13  1  0  0  0  0
  7 14  1  0  0  0  0
 12 13  1  0  0  0  0
 10 13  1  0  0  0  0
  5  7  1  0  0  0  0
  7  9  2  0  0  0  0
  2  5  1  0  0  0  0
  1  2  2  0  0  0  0
  2  4  1  0  0  0  0
  3  4  1  0  0  0  0
M  END
> <Shapegauss>
-173.261047

$$$$
