stable:False satoms:7 tatoms:24 sratio:0.2916666666666667
  -OEChem-07092417473D

 24 24  0     1  0  0  0  0  0999 V2000
    6.4984   -4.8691   26.4388 C   0  0  0  0  0  0  0  0  0  0  0  0
    8.2571   -4.2883   26.1302 S   0  0  0  0  0  0  0  0  0  0  0  0
    9.0197   -5.5058   26.0514 O   0  0  0  0  0  0  0  0  0  0  0  0
    8.6385   -3.4194   27.2004 O   0  0  0  0  0  0  0  0  0  0  0  0
    8.1495   -3.5358   24.6929 N   0  0  0  0  0  0  0  0  0  0  0  0
    8.9455   -2.8928   24.1444 C   0  0  0  0  0  0  0  0  0  0  0  0
    9.4205   -2.0373   23.5271 C   0  0  0  0  0  0  0  0  0  0  0  0
   10.3707   -1.2236   23.1319 C   0  0  1  0  0  0  0  0  0  0  0  0
   11.0719    0.0279   24.2960 C   0  0  0  0  0  0  0  0  0  0  0  0
   12.0358    0.2698   24.3012 C   0  0  0  0  0  0  0  0  0  0  0  0
   13.1736   -0.2584   23.4277 C   0  0  0  0  0  0  0  0  0  0  0  0
   12.7741   -1.1707   22.6943 C   0  0  0  0  0  0  0  0  0  0  0  0
   11.7601   -1.6630   22.5262 C   0  0  0  0  0  0  0  0  0  0  0  0
    9.6947   -0.6220   22.3467 C   0  0  0  0  0  0  0  0  0  0  0  0
    9.0696    0.0222   21.3510 C   0  0  0  0  0  0  0  0  0  0  0  0
    9.5645    0.9918   20.9448 O   0  0  0  0  0  0  0  0  0  0  0  0
    7.9417   -0.5872   21.0317 N   0  0  0  0  0  0  0  0  0  0  0  0
    7.2054   -0.0713   20.1651 C   0  0  0  0  0  0  0  0  0  0  0  0
    7.2004    0.0332   18.8930 C   0  0  0  0  0  0  0  0  0  0  0  0
    6.7212    0.3070   17.7729 N   0  0  0  0  0  0  0  0  0  0  0  0
    5.6677    0.8805   18.2602 C   0  0  0  0  0  0  0  0  0  0  0  0
    5.3154    1.0129   19.4212 C   0  0  0  0  0  0  0  0  0  0  0  0
    5.8247    0.6159   20.5553 C   0  0  0  0  0  0  0  0  0  0  0  0
    5.2634    0.6931   21.9922 Cl  0  0  0  0  0  0  0  0  0  0  0  0
 20 21  2  0  0  0  0
 19 20  1  0  0  0  0
 21 22  1  0  0  0  0
 18 19  2  0  0  0  0
 22 23  2  0  0  0  0
 18 23  1  0  0  0  0
 17 18  1  0  0  0  0
 23 24  1  0  0  0  0
 15 16  2  0  0  0  0
 15 17  1  0  0  0  0
 14 15  1  0  0  0  0
  8 14  1  0  0  0  0
 12 13  2  0  0  0  0
  8 13  1  0  0  0  0
 11 12  1  0  0  0  0
  7  8  1  0  0  0  0
 10 11  1  0  0  0  0
  6  7  3  0  0  0  0
  5  6  1  0  0  0  0
  9 10  2  0  0  0  0
  2  5  1  0  0  0  0
  2  3  2  0  0  0  0
  1  2  1  0  0  0  0
  2  4  2  0  0  0  0
M  END
> <Shapegauss>
-287.447601

$$$$
