stable:False satoms:21 tatoms:24 sratio:0.875
  -OEChem-07092417293D

 24 24  0     0  0  0  0  0  0999 V2000
    7.4363   -1.0919   20.5023 N   0  0  0  0  0  0  0  0  0  0  0  0
   10.9247   -0.8519   24.7753 C   0  0  0  0  0  0  0  0  0  0  0  0
    7.0414   -0.0911   21.3180 O   0  0  0  0  0  0  0  0  0  0  0  0
    8.1908   -3.2170   21.0280 H   0  0  0  0  0  0  0  0  0  0  0  0
    8.2751   -2.4031   25.4803 O   0  0  0  0  0  0  0  0  0  0  0  0
    7.9120   -2.8531   18.2172 H   0  0  0  0  0  0  0  0  0  0  0  0
    7.7990   -2.2376   19.1101 C   0  0  0  0  0  0  0  0  0  0  0  0
    7.6179   -2.3010   22.8770 H   0  0  0  0  0  0  0  0  0  0  0  0
    7.4701    0.8338   23.1018 H   0  0  0  0  0  0  0  0  0  0  0  0
    7.3639   -1.3098   23.2534 C   0  0  0  0  0  0  0  0  0  0  0  0
    7.9315   -2.4242   20.3584 C   0  0  0  0  0  0  0  0  0  0  0  0
   12.1162   -0.9452   24.2094 C   0  0  0  0  0  0  0  0  0  0  0  0
    8.3539   -1.2011   24.7427 S   0  0  0  0  0  0  0  0  0  0  0  0
   12.6533   -0.0738   23.9457 H   0  0  0  0  0  0  0  0  0  0  0  0
    7.3437   -0.9080   19.2635 C   0  3  0  0  0  0  0  0  0  0  0  0
   10.0411   -1.3554   23.0626 H   0  0  0  0  0  0  0  0  0  0  0  0
    7.7639   -0.0344   22.5015 C   0  0  0  0  0  0  0  0  0  0  0  0
    8.1353    0.0468   25.3837 O   0  0  0  0  0  0  0  0  0  0  0  0
    6.2853   -1.2826   23.3733 H   0  0  0  0  0  0  0  0  0  0  0  0
   10.7418   -0.5202   25.7804 H   0  0  0  0  0  0  0  0  0  0  0  0
   12.5095   -1.9116   23.9911 H   0  0  0  0  0  0  0  0  0  0  0  0
    7.0240   -0.0759   18.6779 H   0  0  0  0  0  0  0  0  0  0  0  0
    9.8234   -1.1792   24.0280 N   0  0  0  0  0  0  0  0  0  0  0  0
    8.8303    0.0975   22.3152 H   0  0  0  0  0  0  0  0  0  0  0  0
  6  7  1  0  0  0  0
 15 22  1  0  0  0  0
  7 15  1  0  0  0  0
  7 11  2  0  0  0  0
  1 15  1  0  0  0  0
  1 11  1  0  0  0  0
  4 11  1  0  0  0  0
  1  3  1  0  0  0  0
  3 17  1  0  0  0  0
 17 24  1  0  0  0  0
  9 17  1  0  0  0  0
 10 17  1  0  0  0  0
  8 10  1  0  0  0  0
 16 23  1  0  0  0  0
 10 19  1  0  0  0  0
 10 13  1  0  0  0  0
 12 14  1  0  0  0  0
 12 21  1  0  0  0  0
 13 23  1  0  0  0  0
  2 23  1  0  0  0  0
  2 12  2  0  0  0  0
 13 18  2  0  0  0  0
  5 13  2  0  0  0  0
  2 20  1  0  0  0  0
M  CHG  1  15   1
M  END
> <Shapegauss>
-106.623337

$$$$
