stable:False satoms:21 tatoms:24 sratio:0.875
  -OEChem-08052416363D

 23 23  0     0  0  0  0  0  0999 V2000
   11.2168   -0.2828   23.7611 N   0  0  3  0  0  0  0  0  0  0  0  0
    7.9209   -4.3651   25.4806 C   0  0  0  0  0  0  0  0  0  0  0  0
    9.9350    0.1152   23.6147 O   0  0  0  0  0  0  0  0  0  0  0  0
   12.1900   -2.3327   23.3001 H   0  0  0  0  0  0  0  0  0  0  0  0
    8.2378   -4.3236   22.3466 O   0  0  0  0  0  0  0  0  0  0  0  0
   14.1192   -0.3955   24.0975 H   0  0  0  0  0  0  0  0  0  0  0  0
   13.0344   -0.4369   23.9956 C   0  0  0  0  0  0  0  0  0  0  0  0
   10.1552   -2.4653   22.6457 H   0  0  0  0  0  0  0  0  0  0  0  0
    7.9904   -0.5125   23.8287 H   0  0  0  0  0  0  0  0  0  0  0  0
    9.2254   -1.9057   22.7503 C   0  0  0  0  0  0  0  0  0  0  0  0
   12.1938   -1.3178   23.6377 C   0  0  0  0  0  0  0  0  0  0  0  0
    8.4713   -4.7501   26.6196 C   0  0  0  0  0  0  0  0  0  0  0  0
    8.0505   -3.1915   23.1702 S   0  0  0  0  0  0  0  0  0  0  0  0
    8.1479   -4.3367   27.5371 H   0  0  0  0  0  0  0  0  0  0  0  0
   12.0536    0.5697   24.1484 C   0  0  0  0  0  2  0  0  0  0  0  0
    9.5231   -3.2644   25.0462 H   0  0  0  0  0  0  0  0  0  0  0  0
    9.0173   -0.8910   23.8813 C   0  0  0  0  0  0  0  0  0  0  0  0
    6.7553   -2.6337   23.3353 O   0  0  0  0  0  0  0  0  0  0  0  0
    9.0666   -1.3765   21.8158 H   0  0  0  0  0  0  0  0  0  0  0  0
    6.9259   -4.6120   25.1601 H   0  0  0  0  0  0  0  0  0  0  0  0
    9.2696   -5.4561   26.5943 H   0  0  0  0  0  0  0  0  0  0  0  0
    8.6556   -3.5697   24.6404 N   0  0  0  0  0  0  0  0  0  0  0  0
    9.1261   -1.2755   24.8960 H   0  0  0  0  0  0  0  0  0  0  0  0
  6  7  1  0  0  0  0
  7 15  1  0  0  0  0
  7 11  2  0  0  0  0
  1 15  1  0  0  0  0
  1 11  1  0  0  0  0
  4 11  1  0  0  0  0
  1  3  1  0  0  0  0
  3 17  1  0  0  0  0
 17 23  1  0  0  0  0
  9 17  1  0  0  0  0
 10 17  1  0  0  0  0
  8 10  1  0  0  0  0
 16 22  1  0  0  0  0
 10 19  1  0  0  0  0
 10 13  1  0  0  0  0
 12 14  1  0  0  0  0
 12 21  1  0  0  0  0
 13 22  1  0  0  0  0
  2 22  1  0  0  0  0
  2 12  2  0  0  0  0
 13 18  2  0  0  0  0
  5 13  2  0  0  0  0
  2 20  1  0  0  0  0
M  END
> <Chemgauss4>
-5.804888

$$$$
