stable:False satoms:21 tatoms:24 sratio:0.875
  -OEChem-08052416363D

 23 23  0     0  0  0  0  0  0999 V2000
  -11.6722   -0.7686  -23.7036 N   0  0  3  0  0  0  0  0  0  0  0  0
   -6.6733   -1.1241  -21.3864 C   0  0  0  0  0  0  0  0  0  0  0  0
  -11.6165   -1.9106  -22.9857 O   0  0  0  0  0  0  0  0  0  0  0  0
  -10.0849    0.1805  -25.0970 H   0  0  0  0  0  0  0  0  0  0  0  0
   -6.8987   -2.8473  -24.0139 O   0  0  0  0  0  0  0  0  0  0  0  0
  -12.5400    1.6232  -25.1446 H   0  0  0  0  0  0  0  0  0  0  0  0
  -12.1365    0.7649  -24.6065 C   0  0  0  0  0  0  0  0  0  0  0  0
   -9.2882   -1.7034  -24.4630 H   0  0  0  0  0  0  0  0  0  0  0  0
  -10.3625   -3.0638  -21.8372 H   0  0  0  0  0  0  0  0  0  0  0  0
   -9.4972   -2.4687  -23.7151 C   0  0  0  0  0  0  0  0  0  0  0  0
  -11.0324    0.1391  -24.6024 C   0  0  0  0  0  0  0  0  0  0  0  0
   -6.4687    0.0888  -20.9012 C   0  0  0  0  0  0  0  0  0  0  0  0
   -7.8795   -2.7578  -23.0014 S   0  0  0  0  0  0  0  0  0  0  0  0
   -6.7249    0.3155  -19.9010 H   0  0  0  0  0  0  0  0  0  0  0  0
  -12.7475   -0.1202  -23.6890 C   0  0  0  0  0  2  0  0  0  0  0  0
   -8.2620   -0.4805  -22.4010 H   0  0  0  0  0  0  0  0  0  0  0  0
  -10.3526   -2.1742  -22.4767 C   0  0  0  0  0  0  0  0  0  0  0  0
   -7.9616   -3.7563  -21.9953 O   0  0  0  0  0  0  0  0  0  0  0  0
   -9.9648   -3.2999  -24.2336 H   0  0  0  0  0  0  0  0  0  0  0  0
   -6.1124   -2.0001  -21.1184 H   0  0  0  0  0  0  0  0  0  0  0  0
   -6.0754    0.8424  -21.5444 H   0  0  0  0  0  0  0  0  0  0  0  0
   -7.6914   -1.3001  -22.2869 N   0  0  0  0  0  0  0  0  0  0  0  0
  -10.0022   -1.3665  -21.8333 H   0  0  0  0  0  0  0  0  0  0  0  0
  6  7  1  0  0  0  0
  7 15  1  0  0  0  0
  7 11  2  0  0  0  0
  1 15  1  0  0  0  0
  1 11  1  0  0  0  0
  4 11  1  0  0  0  0
  1  3  1  0  0  0  0
  3 17  1  0  0  0  0
 17 23  1  0  0  0  0
  9 17  1  0  0  0  0
 10 17  1  0  0  0  0
  8 10  1  0  0  0  0
 16 22  1  0  0  0  0
 10 19  1  0  0  0  0
 10 13  1  0  0  0  0
 12 14  1  0  0  0  0
 12 21  1  0  0  0  0
 13 22  1  0  0  0  0
  2 22  1  0  0  0  0
  2 12  2  0  0  0  0
 13 18  2  0  0  0  0
  5 13  2  0  0  0  0
  2 20  1  0  0  0  0
M  END
> <Chemgauss4>
-5.848481

$$$$
