stable:False satoms:8 tatoms:24 sratio:0.3333333333333333
  -OEChem-07092417443D

 24 26  0     1  0  0  0  0  0999 V2000
    6.7234   -4.8125   26.2702 O   0  0  0  0  0  0  0  0  0  0  0  0
    8.1153   -4.3389   26.1011 S   0  0  0  0  0  0  0  0  0  0  0  0
    9.0495   -5.4305   26.1194 O   0  0  0  0  0  0  0  0  0  0  0  0
    8.4627   -3.3786   27.1050 O   0  5  0  0  0  0  0  0  0  0  0  0
    8.1647   -3.6197   24.6215 N   0  0  0  0  0  0  0  0  0  0  0  0
    8.8281   -2.8024   24.1076 C   0  0  0  0  0  0  0  0  0  0  0  0
    9.3160   -1.9633   23.5504 C   0  0  0  0  0  0  0  0  0  0  0  0
   10.6353   -1.0071   23.2130 C   0  0  1  0  0  0  0  0  0  0  0  0
   11.2633   -0.1267   24.1155 C   0  0  0  0  0  0  0  0  0  0  0  0
   12.3184    0.2062   24.1405 C   0  0  0  0  0  0  0  0  0  0  0  0
   13.3217    0.2226   23.8589 C   0  0  0  0  0  0  0  0  0  0  0  0
   12.9214   -1.5552   22.4505 O   0  0  0  0  0  0  0  0  0  0  0  0
   11.9514   -1.4757   22.7041 C   0  0  0  0  0  0  0  0  0  0  0  0
    9.6139   -0.7844   22.5946 C   0  0  3  0  0  0  0  0  0  0  0  0
    8.9446    0.0110   21.5200 C   0  0  0  0  0  0  0  0  0  0  0  0
    9.4960    0.9473   21.0208 O   0  0  0  0  0  0  0  0  0  0  0  0
    7.7434   -0.4637   21.2824 N   0  0  0  0  0  0  0  0  0  0  0  0
    7.0003   -0.0330   20.3189 C   0  0  0  0  0  0  0  0  0  0  0  0
    7.3779   -0.1470   18.6683 S   0  3  1  0  0  0  0  0  0  0  0  0
    6.1942    0.5107   17.2934 N   0  0  0  0  0  0  0  0  0  0  0  0
    6.0089    0.5720   18.1897 C   0  0  0  0  0  0  0  0  0  0  0  0
    5.4210    0.8127   19.4088 C   0  0  0  0  0  0  0  0  0  0  0  0
    5.7520    0.5673   20.5341 C   0  0  0  0  0  0  0  0  0  0  0  0
    4.9608    0.7988   22.1080 Br  0  0  0  0  0  0  0  0  0  0  0  0
 20 21  1  0  0  0  0
 19 20  1  0  0  0  0
 19 21  1  0  0  0  0
 21 22  2  0  0  0  0
 18 19  1  0  0  0  0
 22 23  1  0  0  0  0
 18 23  2  0  0  0  0
 17 18  1  0  0  0  0
 23 24  1  0  0  0  0
 15 16  2  0  0  0  0
 15 17  1  0  0  0  0
 14 15  1  0  0  0  0
 12 13  1  0  0  0  0
  8 14  1  0  0  0  0
  7 14  1  0  0  0  0
  8 13  1  0  0  0  0
  7  8  1  0  0  0  0
  8  9  1  0  0  0  0
  6  7  2  0  0  0  0
 10 11  3  0  0  0  0
  5  6  1  0  0  0  0
  9 10  1  0  0  0  0
  2  5  1  0  0  0  0
  2  3  2  0  0  0  0
  1  2  2  0  0  0  0
  2  4  1  0  0  0  0
M  CHG  2   4  -1  19   1
M  END
> <Shapegauss>
-285.656036

$$$$
