stable:False satoms:8 tatoms:24 sratio:0.3333333333333333
  -OEChem-08062411523D

 36 38  0     1  0  0  0  0  0999 V2000
   -6.6000   -5.6097  -26.0169 O   0  0  0  0  0  0  0  0  0  0  0  0
   -7.9902   -5.1100  -25.9281 S   0  0  0  0  0  0  0  0  0  0  0  0
   -8.9367   -6.1900  -25.8806 O   0  0  0  0  0  0  0  0  0  0  0  0
   -8.2982   -4.2349  -27.0190 O   0  5  0  0  0  0  0  0  0  0  0  0
   -8.0716   -4.2674  -24.5166 N   0  0  0  0  0  0  0  0  0  0  0  0
   -8.7389   -3.4030  -24.0927 C   0  0  0  0  0  0  0  0  0  0  0  0
   -9.2318   -2.5150  -23.6225 C   0  0  0  0  0  0  0  0  0  0  0  0
  -10.5482   -1.5208  -23.4047 C   0  0  1  0  0  0  0  0  0  0  0  0
  -11.1404   -0.7141  -24.3959 C   0  0  0  0  0  0  0  0  0  0  0  0
  -12.1903   -0.3743  -24.4789 C   0  0  0  0  0  0  0  0  0  0  0  0
  -13.2007   -0.3243  -24.2284 C   0  0  0  0  0  0  0  0  0  0  0  0
  -12.8609   -1.9800  -22.6639 O   0  0  0  0  0  0  0  0  0  0  0  0
  -11.8834   -1.9318  -22.8957 C   0  0  0  0  0  0  0  0  0  0  0  0
   -9.5416   -1.2564  -22.7786 C   0  0  3  0  0  0  0  0  0  0  0  0
   -8.8925   -0.3793  -21.7565 C   0  0  0  0  0  0  0  0  0  0  0  0
   -9.4461    0.6013  -21.3541 O   0  0  0  0  0  0  0  0  0  0  0  0
   -7.7041   -0.8438  -21.4456 N   0  0  0  0  0  0  0  0  0  0  0  0
   -6.9826   -0.3401  -20.5012 C   0  0  0  0  0  0  0  0  0  0  0  0
   -7.4069   -0.3101  -18.8582 S   0  3  1  0  0  0  0  0  0  0  0  0
   -6.2535    0.4504  -17.5108 N   0  0  0  0  0  0  0  0  0  0  0  0
   -6.0429    0.4336  -18.4034 C   0  0  0  0  0  0  0  0  0  0  0  0
   -5.4189    0.5643  -19.6213 C   0  0  0  0  0  0  0  0  0  0  0  0
   -5.7217    0.2276  -20.7308 C   0  0  0  0  0  0  0  0  0  0  0  0
   -4.8848    0.3170  -22.2955 Br  0  0  0  0  0  0  0  0  0  0  0  0
   -7.1492   -3.8898  -24.4352 H   0  0  0  0  0  0  0  0  0  0  0  0
   -9.6559   -3.7971  -24.5054 H   0  0  0  0  0  0  0  0  0  0  0  0
  -10.5520    0.2152  -24.3806 H   0  0  0  0  0  0  0  0  0  0  0  0
  -10.9514   -1.2524  -25.3364 H   0  0  0  0  0  0  0  0  0  0  0  0
  -14.2284   -0.2735  -23.9735 H   0  0  0  0  0  0  0  0  0  0  0  0
  -13.0332   -2.7800  -22.1814 H   0  0  0  0  0  0  0  0  0  0  0  0
  -11.5445   -2.0488  -21.8557 H   0  0  0  0  0  0  0  0  0  0  0  0
  -11.8678   -2.9099  -23.3987 H   0  0  0  0  0  0  0  0  0  0  0  0
   -9.1836   -0.6049  -23.5894 H   0  0  0  0  0  0  0  0  0  0  0  0
   -7.3430   -1.6202  -21.9621 H   0  0  0  0  0  0  0  0  0  0  0  0
   -5.7706   -0.1394  -16.8635 H   0  0  0  0  0  0  0  0  0  0  0  0
   -4.4666    1.0710  -19.5675 H   0  0  0  0  0  0  0  0  0  0  0  0
 20 21  1  0  0  0  0
 19 20  1  0  0  0  0
 19 21  1  0  0  0  0
 21 22  2  0  0  0  0
 18 19  1  0  0  0  0
 22 23  1  0  0  0  0
 18 23  2  0  0  0  0
 17 18  1  0  0  0  0
 23 24  1  0  0  0  0
 15 16  2  0  0  0  0
 15 17  1  0  0  0  0
 14 15  1  0  0  0  0
 12 13  1  0  0  0  0
  8 14  1  0  0  0  0
  7 14  1  0  0  0  0
  8 13  1  0  0  0  0
  7  8  1  0  0  0  0
  8  9  1  0  0  0  0
  6  7  2  0  0  0  0
 10 11  3  0  0  0  0
  5  6  1  0  0  0  0
  9 10  1  0  0  0  0
  2  5  1  0  0  0  0
  2  3  2  0  0  0  0
  1  2  2  0  0  0  0
  2  4  1  0  0  0  0
  5 25  1  0  0  0  0
  6 26  1  0  0  0  0
  9 27  1  0  0  0  0
  9 28  1  0  0  0  0
 11 29  1  0  0  0  0
 12 30  1  0  0  0  0
 13 31  1  0  0  0  0
 13 32  1  0  0  0  0
 14 33  1  0  0  0  0
 17 34  1  0  0  0  0
 20 35  1  0  0  0  0
 22 36  1  0  0  0  0
M  CHG  2   4  -1  19   1
M  END
> <Chemgauss4>
-8.070900

$$$$
