stable:False satoms:8 tatoms:24 sratio:0.3333333333333333
  -OEChem-08062411523D

 36 38  0     1  0  0  0  0  0999 V2000
    6.6426   -5.3583   25.8069 O   0  0  0  0  0  0  0  0  0  0  0  0
    8.0328   -4.8585   25.7180 S   0  0  0  0  0  0  0  0  0  0  0  0
    8.9793   -5.9386   25.6705 O   0  0  0  0  0  0  0  0  0  0  0  0
    8.3408   -3.9835   26.8090 O   0  5  0  0  0  0  0  0  0  0  0  0
    8.1142   -4.0160   24.3065 N   0  0  0  0  0  0  0  0  0  0  0  0
    8.7815   -3.1516   23.8826 C   0  0  0  0  0  0  0  0  0  0  0  0
    9.2744   -2.2636   23.4124 C   0  0  0  0  0  0  0  0  0  0  0  0
   10.5908   -1.2694   23.1947 C   0  0  1  0  0  0  0  0  0  0  0  0
   11.1830   -0.4627   24.1858 C   0  0  0  0  0  0  0  0  0  0  0  0
   12.2330   -0.1229   24.2689 C   0  0  0  0  0  0  0  0  0  0  0  0
   13.2433   -0.0729   24.0183 C   0  0  0  0  0  0  0  0  0  0  0  0
   12.9035   -1.7286   22.4539 O   0  0  0  0  0  0  0  0  0  0  0  0
   11.9260   -1.6804   22.6856 C   0  0  0  0  0  0  0  0  0  0  0  0
    9.5842   -1.0050   22.5685 C   0  0  3  0  0  0  0  0  0  0  0  0
    8.9351   -0.1279   21.5464 C   0  0  0  0  0  0  0  0  0  0  0  0
    9.4887    0.8527   21.1440 O   0  0  0  0  0  0  0  0  0  0  0  0
    7.7467   -0.5924   21.2355 N   0  0  0  0  0  0  0  0  0  0  0  0
    7.0252   -0.0887   20.2911 C   0  0  0  0  0  0  0  0  0  0  0  0
    7.4495   -0.0586   18.6482 S   0  3  1  0  0  0  0  0  0  0  0  0
    6.2961    0.7018   17.3007 N   0  0  0  0  0  0  0  0  0  0  0  0
    6.0855    0.6850   18.1933 C   0  0  0  0  0  0  0  0  0  0  0  0
    5.4615    0.8157   19.4112 C   0  0  0  0  0  0  0  0  0  0  0  0
    5.7643    0.4790   20.5207 C   0  0  0  0  0  0  0  0  0  0  0  0
    4.9274    0.5684   22.0854 Br  0  0  0  0  0  0  0  0  0  0  0  0
    7.1918   -3.6384   24.2251 H   0  0  0  0  0  0  0  0  0  0  0  0
    9.6985   -3.5457   24.2954 H   0  0  0  0  0  0  0  0  0  0  0  0
   10.5946    0.4666   24.1705 H   0  0  0  0  0  0  0  0  0  0  0  0
   10.9940   -1.0010   25.1263 H   0  0  0  0  0  0  0  0  0  0  0  0
   14.2710   -0.0221   23.7634 H   0  0  0  0  0  0  0  0  0  0  0  0
   13.0758   -2.5286   21.9713 H   0  0  0  0  0  0  0  0  0  0  0  0
   11.5871   -1.7974   21.6457 H   0  0  0  0  0  0  0  0  0  0  0  0
   11.9104   -2.6585   23.1886 H   0  0  0  0  0  0  0  0  0  0  0  0
    9.2262   -0.3535   23.3793 H   0  0  0  0  0  0  0  0  0  0  0  0
    7.3856   -1.3688   21.7520 H   0  0  0  0  0  0  0  0  0  0  0  0
    5.8132    0.1120   16.6534 H   0  0  0  0  0  0  0  0  0  0  0  0
    4.5092    1.3224   19.3574 H   0  0  0  0  0  0  0  0  0  0  0  0
 20 21  1  0  0  0  0
 19 20  1  0  0  0  0
 19 21  1  0  0  0  0
 21 22  2  0  0  0  0
 18 19  1  0  0  0  0
 22 23  1  0  0  0  0
 18 23  2  0  0  0  0
 17 18  1  0  0  0  0
 23 24  1  0  0  0  0
 15 16  2  0  0  0  0
 15 17  1  0  0  0  0
 14 15  1  0  0  0  0
 12 13  1  0  0  0  0
  8 14  1  0  0  0  0
  7 14  1  0  0  0  0
  8 13  1  0  0  0  0
  7  8  1  0  0  0  0
  8  9  1  0  0  0  0
  6  7  2  0  0  0  0
 10 11  3  0  0  0  0
  5  6  1  0  0  0  0
  9 10  1  0  0  0  0
  2  5  1  0  0  0  0
  2  3  2  0  0  0  0
  1  2  2  0  0  0  0
  2  4  1  0  0  0  0
  5 25  1  0  0  0  0
  6 26  1  0  0  0  0
  9 27  1  0  0  0  0
  9 28  1  0  0  0  0
 11 29  1  0  0  0  0
 12 30  1  0  0  0  0
 13 31  1  0  0  0  0
 13 32  1  0  0  0  0
 14 33  1  0  0  0  0
 17 34  1  0  0  0  0
 20 35  1  0  0  0  0
 22 36  1  0  0  0  0
M  CHG  2   4  -1  19   1
M  END
> <Chemgauss4>
-8.358672

$$$$
