MODEL 1
REMARK VINA RESULT:    -6.421      0.000      0.000
REMARK INTER + INTRA:         -11.405
REMARK INTER:                 -10.175
REMARK INTRA:                  -1.230
REMARK UNBOUND:                -1.230
REMARK  10 active torsions:
REMARK  status: ('A' for Active; 'I' for Inactive)
REMARK    1  A    between atoms: S_2  and  N_5 
REMARK    2  A    between atoms: N_5  and  C_7 
REMARK    3  A    between atoms: C_7  and  C_8 
REMARK    4  A    between atoms: C_9  and  C_15 
REMARK    5  A    between atoms: C_9  and  C_10 
REMARK    6  A    between atoms: C_10  and  C_11 
REMARK    7  A    between atoms: C_11  and  C_12 
REMARK    8  A    between atoms: C_12  and  C_13 
REMARK    9  A    between atoms: C_15  and  C_16 
REMARK       I    between atoms: C_16  and  N_18 
REMARK   10  A    between atoms: N_18  and  C_20 
ROOT
HETATM    1  C   UNL     1       8.812  -2.521  23.783  1.00  0.00     0.038 C 
HETATM    2  C   UNL     1       9.180  -1.307  23.747  1.00  0.00     0.016 C 
ENDROOT
BRANCH   2   3
HETATM    3  C   UNL     1       8.654  -0.933  22.788  1.00  0.00    -0.044 C 
BRANCH   3   4
HETATM    4  C   UNL     1       8.259  -0.503  21.588  1.00  0.00     0.294 C 
HETATM    5  O   UNL     1       9.071  -0.136  20.881  1.00  0.00    -0.258 OA
HETATM    6  N   UNL     1       6.935  -0.567  21.477  1.00  0.00    -0.315 N 
ATOM      7  HN  UNL     1       6.352  -0.916  22.239  1.00  0.00     0.170 HD
BRANCH   6   8
HETATM    8  C   UNL     1       6.435  -0.179  20.393  1.00  0.00     0.060 A 
HETATM    9  C   UNL     1       6.152  -0.723  19.220  1.00  0.00     0.117 A 
HETATM   10  N   UNL     1       5.690  -0.708  18.119  1.00  0.00    -0.373 N 
HETATM   11  C   UNL     1       5.253   0.583  18.184  1.00  0.00     0.088 A 
ATOM     12  HN  UNL     1       5.640  -1.415  17.385  1.00  0.00     0.164 HD
HETATM   13  C   UNL     1       5.347   1.395  19.090  1.00  0.00     0.030 A 
HETATM   14  C   UNL     1       5.886   1.278  20.297  1.00  0.00    -0.016 A 
HETATM   15  C   UNL     1       5.978   2.164  21.288  1.00  0.00     0.026 C 
ENDBRANCH   6   8
ENDBRANCH   3   4
ENDBRANCH   2   3
BRANCH   2  16
HETATM   16  C   UNL     1       9.759  -0.252  24.805  1.00  0.00     0.020 C 
BRANCH  16  17
HETATM   17  C   UNL     1      10.684   0.051  25.188  1.00  0.00     0.001 C 
BRANCH  17  18
HETATM   18  C   UNL     1      11.707   0.801  24.507  1.00  0.00    -0.001 C 
BRANCH  18  19
HETATM   19  C   UNL     1      12.703  -0.044  24.052  1.00  0.00    -0.010 C 
HETATM   20  C   UNL     1      13.386  -0.642  24.253  1.00  0.00     0.011 C 
ENDBRANCH  18  19
ENDBRANCH  17  18
ENDBRANCH  16  17
ENDBRANCH   2  16
BRANCH   1  21
HETATM   21  C   UNL     1       8.631  -3.634  24.221  1.00  0.00     0.101 C 
BRANCH  21  22
HETATM   22  N   UNL     1       8.018  -4.512  24.653  1.00  0.00    -0.295 N 
ATOM     23  HN  UNL     1       7.622  -5.173  23.986  1.00  0.00     0.177 HD
BRANCH  22  24
HETATM   24  S   UNL     1       7.732  -4.788  26.215  1.00  0.00     0.226 S 
HETATM   25  C   UNL     1       6.487  -3.358  26.703  1.00  0.00     0.186 C 
HETATM   26  O   UNL     1       7.028  -6.023  26.450  1.00  0.00    -0.206 OA
HETATM   27  O   UNL     1       8.887  -4.614  27.017  1.00  0.00    -0.206 OA
ENDBRANCH  22  24
ENDBRANCH  21  22
ENDBRANCH   1  21
TORSDOF 10
ENDMDL
MODEL 2
REMARK VINA RESULT:    -6.392      3.209      5.599
REMARK INTER + INTRA:         -11.358
REMARK INTER:                  -9.948
REMARK INTRA:                  -1.410
REMARK UNBOUND:                -1.230
REMARK  10 active torsions:
REMARK  status: ('A' for Active; 'I' for Inactive)
REMARK    1  A    between atoms: S_2  and  N_5 
REMARK    2  A    between atoms: N_5  and  C_7 
REMARK    3  A    between atoms: C_7  and  C_8 
REMARK    4  A    between atoms: C_9  and  C_15 
REMARK    5  A    between atoms: C_9  and  C_10 
REMARK    6  A    between atoms: C_10  and  C_11 
REMARK    7  A    between atoms: C_11  and  C_12 
REMARK    8  A    between atoms: C_12  and  C_13 
REMARK    9  A    between atoms: C_15  and  C_16 
REMARK       I    between atoms: C_16  and  N_18 
REMARK   10  A    between atoms: N_18  and  C_20 
ROOT
HETATM    1  C   UNL     1       8.104  -4.632  25.648  1.00  0.00     0.038 C 
HETATM    2  C   UNL     1       7.973  -4.446  24.399  1.00  0.00     0.016 C 
ENDROOT
BRANCH   2   3
HETATM    3  C   UNL     1       8.643  -3.519  24.231  1.00  0.00    -0.044 C 
BRANCH   3   4
HETATM    4  C   UNL     1       9.288  -2.415  23.847  1.00  0.00     0.294 C 
HETATM    5  O   UNL     1       9.448  -2.277  22.729  1.00  0.00    -0.258 OA
HETATM    6  N   UNL     1       9.652  -1.691  24.902  1.00  0.00    -0.315 N 
ATOM      7  HN  UNL     1       9.432  -1.987  25.853  1.00  0.00     0.170 HD
BRANCH   6   8
HETATM    8  C   UNL     1      10.278  -0.628  24.673  1.00  0.00     0.060 A 
HETATM    9  C   UNL     1      11.519  -0.297  24.357  1.00  0.00     0.117 A 
HETATM   10  N   UNL     1      12.372   0.479  24.044  1.00  0.00    -0.373 N 
HETATM   11  C   UNL     1      11.554   1.571  24.044  1.00  0.00     0.088 A 
ATOM     12  HN  UNL     1      13.366   0.365  23.847  1.00  0.00     0.164 HD
HETATM   13  C   UNL     1      10.363   1.655  24.299  1.00  0.00     0.030 A 
HETATM   14  C   UNL     1       9.488   0.717  24.639  1.00  0.00    -0.016 A 
HETATM   15  C   UNL     1       8.187   0.811  24.907  1.00  0.00     0.026 C 
ENDBRANCH   6   8
ENDBRANCH   3   4
ENDBRANCH   2   3
BRANCH   2  16
HETATM   16  C   UNL     1       7.508  -5.334  23.150  1.00  0.00     0.020 C 
BRANCH  16  17
HETATM   17  C   UNL     1       6.923  -5.235  22.288  1.00  0.00     0.001 C 
BRANCH  17  18
HETATM   18  C   UNL     1       5.714  -4.468  22.137  1.00  0.00    -0.001 C 
BRANCH  18  19
HETATM   19  C   UNL     1       5.990  -3.241  21.559  1.00  0.00    -0.010 C 
HETATM   20  C   UNL     1       6.001  -2.315  21.637  1.00  0.00     0.011 C 
ENDBRANCH  18  19
ENDBRANCH  17  18
ENDBRANCH  16  17
ENDBRANCH   2  16
BRANCH   1  21
HETATM   21  C   UNL     1       8.036  -5.186  26.721  1.00  0.00     0.101 C 
BRANCH  21  22
HETATM   22  N   UNL     1       7.777  -6.038  27.455  1.00  0.00    -0.295 N 
ATOM     23  HN  UNL     1       8.449  -6.802  27.532  1.00  0.00     0.177 HD
BRANCH  22  24
HETATM   24  S   UNL     1       6.452  -6.134  28.367  1.00  0.00     0.226 S 
HETATM   25  C   UNL     1       5.000  -5.893  27.076  1.00  0.00     0.186 C 
HETATM   26  O   UNL     1       6.256  -7.440  28.943  1.00  0.00    -0.206 OA
HETATM   27  O   UNL     1       6.354  -5.068  29.294  1.00  0.00    -0.206 OA
ENDBRANCH  22  24
ENDBRANCH  21  22
ENDBRANCH   1  21
TORSDOF 10
ENDMDL
MODEL 3
REMARK VINA RESULT:    -5.993      3.122      6.320
REMARK INTER + INTRA:         -10.727
REMARK INTER:                  -9.653
REMARK INTRA:                  -1.074
REMARK UNBOUND:                -1.230
REMARK  10 active torsions:
REMARK  status: ('A' for Active; 'I' for Inactive)
REMARK    1  A    between atoms: S_2  and  N_5 
REMARK    2  A    between atoms: N_5  and  C_7 
REMARK    3  A    between atoms: C_7  and  C_8 
REMARK    4  A    between atoms: C_9  and  C_15 
REMARK    5  A    between atoms: C_9  and  C_10 
REMARK    6  A    between atoms: C_10  and  C_11 
REMARK    7  A    between atoms: C_11  and  C_12 
REMARK    8  A    between atoms: C_12  and  C_13 
REMARK    9  A    between atoms: C_15  and  C_16 
REMARK       I    between atoms: C_16  and  N_18 
REMARK   10  A    between atoms: N_18  and  C_20 
ROOT
HETATM    1  C   UNL     1       8.511  -0.910  21.448  1.00  0.00     0.038 C 
HETATM    2  C   UNL     1       9.235  -1.474  22.325  1.00  0.00     0.016 C 
ENDROOT
BRANCH   2   3
HETATM    3  C   UNL     1       8.492  -2.225  22.792  1.00  0.00    -0.044 C 
BRANCH   3   4
HETATM    4  C   UNL     1       7.508  -2.904  23.386  1.00  0.00     0.294 C 
HETATM    5  O   UNL     1       6.669  -2.293  23.850  1.00  0.00    -0.258 OA
HETATM    6  N   UNL     1       7.743  -4.213  23.334  1.00  0.00    -0.315 N 
ATOM      7  HN  UNL     1       8.576  -4.588  22.881  1.00  0.00     0.170 HD
BRANCH   6   8
HETATM    8  C   UNL     1       6.891  -4.965  23.869  1.00  0.00     0.060 A 
HETATM    9  C   UNL     1       6.535  -5.282  25.103  1.00  0.00     0.117 A 
HETATM   10  N   UNL     1       5.842  -5.827  25.909  1.00  0.00    -0.373 N 
HETATM   11  C   UNL     1       5.017  -6.410  24.990  1.00  0.00     0.088 A 
ATOM     12  HN  UNL     1       5.860  -5.848  26.928  1.00  0.00     0.164 HD
HETATM   13  C   UNL     1       5.045  -6.359  23.771  1.00  0.00     0.030 A 
HETATM   14  C   UNL     1       5.869  -5.712  22.957  1.00  0.00    -0.016 A 
HETATM   15  C   UNL     1       5.891  -5.650  21.626  1.00  0.00     0.026 C 
ENDBRANCH   6   8
ENDBRANCH   3   4
ENDBRANCH   2   3
BRANCH   2  16
HETATM   16  C   UNL     1      10.808  -1.642  22.577  1.00  0.00     0.020 C 
BRANCH  16  17
HETATM   17  C   UNL     1      11.654  -1.040  22.705  1.00  0.00     0.001 C 
BRANCH  17  18
HETATM   18  C   UNL     1      12.183  -0.530  23.943  1.00  0.00    -0.001 C 
BRANCH  18  19
HETATM   19  C   UNL     1      11.590   0.679  24.260  1.00  0.00    -0.010 C 
HETATM   20  C   UNL     1      11.453   1.573  24.045  1.00  0.00     0.011 C 
ENDBRANCH  18  19
ENDBRANCH  17  18
ENDBRANCH  16  17
ENDBRANCH   2  16
BRANCH   1  21
HETATM   21  C   UNL     1       8.218  -0.231  20.491  1.00  0.00     0.101 C 
BRANCH  21  22
HETATM   22  N   UNL     1       7.684   0.021  19.499  1.00  0.00    -0.295 N 
ATOM     23  HN  UNL     1       8.245   0.462  18.771  1.00  0.00     0.177 HD
BRANCH  22  24
HETATM   24  S   UNL     1       6.134  -0.260  19.159  1.00  0.00     0.226 S 
HETATM   25  C   UNL     1       5.243   1.385  19.738  1.00  0.00     0.186 C 
HETATM   26  O   UNL     1       5.877  -0.372  17.746  1.00  0.00    -0.206 OA
HETATM   27  O   UNL     1       5.591  -1.313  19.935  1.00  0.00    -0.206 OA
ENDBRANCH  22  24
ENDBRANCH  21  22
ENDBRANCH   1  21
TORSDOF 10
ENDMDL
MODEL 4
REMARK VINA RESULT:    -5.839     13.992     15.809
REMARK INTER + INTRA:         -10.482
REMARK INTER:                  -9.220
REMARK INTRA:                  -1.262
REMARK UNBOUND:                -1.230
REMARK  10 active torsions:
REMARK  status: ('A' for Active; 'I' for Inactive)
REMARK    1  A    between atoms: S_2  and  N_5 
REMARK    2  A    between atoms: N_5  and  C_7 
REMARK    3  A    between atoms: C_7  and  C_8 
REMARK    4  A    between atoms: C_9  and  C_15 
REMARK    5  A    between atoms: C_9  and  C_10 
REMARK    6  A    between atoms: C_10  and  C_11 
REMARK    7  A    between atoms: C_11  and  C_12 
REMARK    8  A    between atoms: C_12  and  C_13 
REMARK    9  A    between atoms: C_15  and  C_16 
REMARK       I    between atoms: C_16  and  N_18 
REMARK   10  A    between atoms: N_18  and  C_20 
ROOT
HETATM    1  C   UNL     1      23.936  -3.196  23.658  1.00  0.00     0.038 C 
HETATM    2  C   UNL     1      23.888  -1.952  23.405  1.00  0.00     0.016 C 
ENDROOT
BRANCH   2   3
HETATM    3  C   UNL     1      23.580  -1.954  22.291  1.00  0.00    -0.044 C 
BRANCH   3   4
HETATM    4  C   UNL     1      23.136  -1.746  21.050  1.00  0.00     0.294 C 
HETATM    5  O   UNL     1      22.010  -1.783  20.894  1.00  0.00    -0.258 OA
HETATM    6  N   UNL     1      24.153  -1.561  20.211  1.00  0.00    -0.315 N 
ATOM      7  HN  UNL     1      25.121  -1.579  20.534  1.00  0.00     0.170 HD
BRANCH   6   8
HETATM    8  C   UNL     1      23.866  -1.364  19.005  1.00  0.00     0.060 A 
HETATM    9  C   UNL     1      23.497  -0.331  18.266  1.00  0.00     0.117 A 
HETATM   10  N   UNL     1      23.227   0.200  17.230  1.00  0.00    -0.373 N 
HETATM   11  C   UNL     1      23.420  -0.913  16.464  1.00  0.00     0.088 A 
ATOM     12  HN  UNL     1      22.950   1.154  16.999  1.00  0.00     0.164 HD
HETATM   13  C   UNL     1      23.746  -2.042  16.795  1.00  0.00     0.030 A 
HETATM   14  C   UNL     1      24.030  -2.539  17.992  1.00  0.00    -0.016 A 
HETATM   15  C   UNL     1      24.396  -3.770  18.348  1.00  0.00     0.026 C 
ENDBRANCH   6   8
ENDBRANCH   3   4
ENDBRANCH   2   3
BRANCH   2  16
HETATM   16  C   UNL     1      23.756  -0.611  24.270  1.00  0.00     0.020 C 
BRANCH  16  17
HETATM   17  C   UNL     1      23.056  -0.139  24.890  1.00  0.00     0.001 C 
BRANCH  17  18
HETATM   18  C   UNL     1      21.667   0.107  24.607  1.00  0.00    -0.001 C 
BRANCH  18  19
HETATM   19  C   UNL     1      20.916  -1.028  24.851  1.00  0.00    -0.010 C 
HETATM   20  C   UNL     1      20.545  -1.613  25.472  1.00  0.00     0.011 C 
ENDBRANCH  18  19
ENDBRANCH  17  18
ENDBRANCH  16  17
ENDBRANCH   2  16
BRANCH   1  21
HETATM   21  C   UNL     1      24.000  -4.216  24.305  1.00  0.00     0.101 C 
BRANCH  21  22
HETATM   22  N   UNL     1      24.046  -5.356  24.477  1.00  0.00    -0.295 N 
ATOM     23  HN  UNL     1      23.766  -5.952  23.699  1.00  0.00     0.177 HD
BRANCH  22  24
HETATM   24  S   UNL     1      24.512  -6.092  25.833  1.00  0.00     0.226 S 
HETATM   25  C   UNL     1      26.459  -6.184  25.647  1.00  0.00     0.186 C 
HETATM   26  O   UNL     1      24.264  -5.308  27.015  1.00  0.00    -0.206 OA
HETATM   27  O   UNL     1      24.046  -7.428  25.911  1.00  0.00    -0.206 OA
ENDBRANCH  22  24
ENDBRANCH  21  22
ENDBRANCH   1  21
TORSDOF 10
ENDMDL
MODEL 5
REMARK VINA RESULT:    -5.646      2.648      6.819
REMARK INTER + INTRA:         -10.177
REMARK INTER:                  -9.143
REMARK INTRA:                  -1.034
REMARK UNBOUND:                -1.230
REMARK  10 active torsions:
REMARK  status: ('A' for Active; 'I' for Inactive)
REMARK    1  A    between atoms: S_2  and  N_5 
REMARK    2  A    between atoms: N_5  and  C_7 
REMARK    3  A    between atoms: C_7  and  C_8 
REMARK    4  A    between atoms: C_9  and  C_15 
REMARK    5  A    between atoms: C_9  and  C_10 
REMARK    6  A    between atoms: C_10  and  C_11 
REMARK    7  A    between atoms: C_11  and  C_12 
REMARK    8  A    between atoms: C_12  and  C_13 
REMARK    9  A    between atoms: C_15  and  C_16 
REMARK       I    between atoms: C_16  and  N_18 
REMARK   10  A    between atoms: N_18  and  C_20 
ROOT
HETATM    1  C   UNL     1       7.478  -1.308  22.488  1.00  0.00     0.038 C 
HETATM    2  C   UNL     1       8.486  -1.384  23.256  1.00  0.00     0.016 C 
ENDROOT
BRANCH   2   3
HETATM    3  C   UNL     1       8.375  -2.454  23.679  1.00  0.00    -0.044 C 
BRANCH   3   4
HETATM    4  C   UNL     1       8.078  -3.598  24.299  1.00  0.00     0.294 C 
HETATM    5  O   UNL     1       8.426  -4.559  23.799  1.00  0.00    -0.258 OA
HETATM    6  N   UNL     1       7.377  -3.365  25.406  1.00  0.00    -0.315 N 
ATOM      7  HN  UNL     1       7.136  -2.417  25.695  1.00  0.00     0.170 HD
BRANCH   6   8
HETATM    8  C   UNL     1       7.025  -4.366  26.077  1.00  0.00     0.060 A 
HETATM    9  C   UNL     1       7.579  -5.152  26.986  1.00  0.00     0.117 A 
HETATM   10  N   UNL     1       7.561  -6.038  27.786  1.00  0.00    -0.373 N 
HETATM   11  C   UNL     1       6.248  -6.355  27.592  1.00  0.00     0.088 A 
ATOM     12  HN  UNL     1       8.278  -6.424  28.401  1.00  0.00     0.164 HD
HETATM   13  C   UNL     1       5.429  -5.864  26.831  1.00  0.00     0.030 A 
HETATM   14  C   UNL     1       5.550  -4.863  25.969  1.00  0.00    -0.016 A 
HETATM   15  C   UNL     1       4.652  -4.323  25.147  1.00  0.00     0.026 C 
ENDBRANCH   6   8
ENDBRANCH   3   4
ENDBRANCH   2   3
BRANCH   2  16
HETATM   16  C   UNL     1       9.880  -0.608  23.398  1.00  0.00     0.020 C 
BRANCH  16  17
HETATM   17  C   UNL     1      10.291   0.176  23.956  1.00  0.00     0.001 C 
BRANCH  17  18
HETATM   18  C   UNL     1      11.458   0.130  24.797  1.00  0.00    -0.001 C 
BRANCH  18  19
HETATM   19  C   UNL     1      12.520  -0.441  24.118  1.00  0.00    -0.010 C 
HETATM   20  C   UNL     1      13.427  -0.642  24.094  1.00  0.00     0.011 C 
ENDBRANCH  18  19
ENDBRANCH  17  18
ENDBRANCH  16  17
ENDBRANCH   2  16
BRANCH   1  21
HETATM   21  C   UNL     1       6.742  -0.881  21.629  1.00  0.00     0.101 C 
BRANCH  21  22
HETATM   22  N   UNL     1       6.201  -0.875  20.609  1.00  0.00    -0.295 N 
ATOM     23  HN  UNL     1       5.656  -1.702  20.369  1.00  0.00     0.177 HD
BRANCH  22  24
HETATM   24  S   UNL     1       6.228   0.322  19.530  1.00  0.00     0.226 S 
HETATM   25  C   UNL     1       5.695   1.886  20.580  1.00  0.00     0.186 C 
HETATM   26  O   UNL     1       7.551   0.609  19.038  1.00  0.00    -0.206 OA
HETATM   27  O   UNL     1       5.252   0.160  18.516  1.00  0.00    -0.206 OA
ENDBRANCH  22  24
ENDBRANCH  21  22
ENDBRANCH   1  21
TORSDOF 10
ENDMDL
MODEL 6
REMARK VINA RESULT:    -5.505      5.978      8.713
REMARK INTER + INTRA:          -9.953
REMARK INTER:                  -8.610
REMARK INTRA:                  -1.343
REMARK UNBOUND:                -1.230
REMARK  10 active torsions:
REMARK  status: ('A' for Active; 'I' for Inactive)
REMARK    1  A    between atoms: S_2  and  N_5 
REMARK    2  A    between atoms: N_5  and  C_7 
REMARK    3  A    between atoms: C_7  and  C_8 
REMARK    4  A    between atoms: C_9  and  C_15 
REMARK    5  A    between atoms: C_9  and  C_10 
REMARK    6  A    between atoms: C_10  and  C_11 
REMARK    7  A    between atoms: C_11  and  C_12 
REMARK    8  A    between atoms: C_12  and  C_13 
REMARK    9  A    between atoms: C_15  and  C_16 
REMARK       I    between atoms: C_16  and  N_18 
REMARK   10  A    between atoms: N_18  and  C_20 
ROOT
HETATM    1  C   UNL     1      11.170   5.710  24.364  1.00  0.00     0.038 C 
HETATM    2  C   UNL     1      10.134   5.514  23.657  1.00  0.00     0.016 C 
ENDROOT
BRANCH   2   3
HETATM    3  C   UNL     1      10.123   4.361  23.577  1.00  0.00    -0.044 C 
BRANCH   3   4
HETATM    4  C   UNL     1       9.888   3.047  23.550  1.00  0.00     0.294 C 
HETATM    5  O   UNL     1       9.134   2.644  24.300  1.00  0.00    -0.258 OA
HETATM    6  N   UNL     1      10.643   2.453  22.629  1.00  0.00    -0.315 N 
ATOM      7  HN  UNL     1      11.291   2.984  22.046  1.00  0.00     0.170 HD
BRANCH   6   8
HETATM    8  C   UNL     1      10.523   1.209  22.511  1.00  0.00     0.060 A 
HETATM    9  C   UNL     1       9.827   0.383  21.747  1.00  0.00     0.117 A 
HETATM   10  N   UNL     1       9.522  -0.699  21.344  1.00  0.00    -0.373 N 
HETATM   11  C   UNL     1      10.383  -1.382  22.154  1.00  0.00     0.088 A 
ATOM     12  HN  UNL     1       8.851  -1.006  20.639  1.00  0.00     0.164 HD
HETATM   13  C   UNL     1      11.164  -0.963  22.993  1.00  0.00     0.030 A 
HETATM   14  C   UNL     1      11.435   0.280  23.370  1.00  0.00    -0.016 A 
HETATM   15  C   UNL     1      12.296   0.735  24.280  1.00  0.00     0.026 C 
ENDBRANCH   6   8
ENDBRANCH   3   4
ENDBRANCH   2   3
BRANCH   2  16
HETATM   16  C   UNL     1       8.821   6.354  23.289  1.00  0.00     0.020 C 
BRANCH  16  17
HETATM   17  C   UNL     1       8.096   6.392  22.535  1.00  0.00     0.001 C 
BRANCH  17  18
HETATM   18  C   UNL     1       6.762   5.855  22.580  1.00  0.00    -0.001 C 
BRANCH  18  19
HETATM   19  C   UNL     1       6.774   4.506  22.274  1.00  0.00    -0.010 C 
HETATM   20  C   UNL     1       6.294   3.741  22.050  1.00  0.00     0.011 C 
ENDBRANCH  18  19
ENDBRANCH  17  18
ENDBRANCH  16  17
ENDBRANCH   2  16
BRANCH   1  21
HETATM   21  C   UNL     1      11.974   6.295  25.053  1.00  0.00     0.101 C 
BRANCH  21  22
HETATM   22  N   UNL     1      12.592   7.199  25.418  1.00  0.00    -0.295 N 
ATOM     23  HN  UNL     1      13.494   7.354  24.969  1.00  0.00     0.177 HD
BRANCH  22  24
HETATM   24  S   UNL     1      12.161   8.239  26.571  1.00  0.00     0.226 S 
HETATM   25  C   UNL     1      12.260   7.163  28.205  1.00  0.00     0.186 C 
HETATM   26  O   UNL     1      13.106   9.312  26.746  1.00  0.00    -0.206 OA
HETATM   27  O   UNL     1      10.815   8.663  26.444  1.00  0.00    -0.206 OA
ENDBRANCH  22  24
ENDBRANCH  21  22
ENDBRANCH   1  21
TORSDOF 10
ENDMDL
MODEL 7
REMARK VINA RESULT:    -5.467     24.176     26.636
REMARK INTER + INTRA:          -9.894
REMARK INTER:                  -8.731
REMARK INTRA:                  -1.163
REMARK UNBOUND:                -1.230
REMARK  10 active torsions:
REMARK  status: ('A' for Active; 'I' for Inactive)
REMARK    1  A    between atoms: S_2  and  N_5 
REMARK    2  A    between atoms: N_5  and  C_7 
REMARK    3  A    between atoms: C_7  and  C_8 
REMARK    4  A    between atoms: C_9  and  C_15 
REMARK    5  A    between atoms: C_9  and  C_10 
REMARK    6  A    between atoms: C_10  and  C_11 
REMARK    7  A    between atoms: C_11  and  C_12 
REMARK    8  A    between atoms: C_12  and  C_13 
REMARK    9  A    between atoms: C_15  and  C_16 
REMARK       I    between atoms: C_16  and  N_18 
REMARK   10  A    between atoms: N_18  and  C_20 
ROOT
HETATM    1  C   UNL     1       9.071  16.338   1.304  1.00  0.00     0.038 C 
HETATM    2  C   UNL     1       9.162  15.415   2.171  1.00  0.00     0.016 C 
ENDROOT
BRANCH   2   3
HETATM    3  C   UNL     1       8.375  14.659   1.789  1.00  0.00    -0.044 C 
BRANCH   3   4
HETATM    4  C   UNL     1       7.453  13.719   1.569  1.00  0.00     0.294 C 
HETATM    5  O   UNL     1       7.426  13.259   0.529  1.00  0.00    -0.258 OA
HETATM    6  N   UNL     1       6.705  13.532   2.653  1.00  0.00    -0.315 N 
ATOM      7  HN  UNL     1       6.867  14.060   3.511  1.00  0.00     0.170 HD
BRANCH   6   8
HETATM    8  C   UNL     1       5.790  12.675   2.572  1.00  0.00     0.060 A 
HETATM    9  C   UNL     1       4.623  12.578   1.958  1.00  0.00     0.117 A 
HETATM   10  N   UNL     1       3.633  11.995   1.630  1.00  0.00    -0.373 N 
HETATM   11  C   UNL     1       3.953  10.834   2.274  1.00  0.00     0.088 A 
ATOM     12  HN  UNL     1       2.830  12.269   1.065  1.00  0.00     0.164 HD
HETATM   13  C   UNL     1       4.932  10.559   2.949  1.00  0.00     0.030 A 
HETATM   14  C   UNL     1       5.996  11.289   3.258  1.00  0.00    -0.016 A 
HETATM   15  C   UNL     1       7.067  10.982   3.987  1.00  0.00     0.026 C 
ENDBRANCH   6   8
ENDBRANCH   3   4
ENDBRANCH   2   3
BRANCH   2  16
HETATM   16  C   UNL     1      10.257  14.956   3.246  1.00  0.00     0.020 C 
BRANCH  16  17
HETATM   17  C   UNL     1      10.554  15.198   4.220  1.00  0.00     0.001 C 
BRANCH  17  18
HETATM   18  C   UNL     1      10.411  16.466   4.885  1.00  0.00    -0.001 C 
BRANCH  18  19
HETATM   19  C   UNL     1      10.088  16.279   6.217  1.00  0.00    -0.010 C 
HETATM   20  C   UNL     1      10.317  15.921   7.044  1.00  0.00     0.011 C 
ENDBRANCH  18  19
ENDBRANCH  17  18
ENDBRANCH  16  17
ENDBRANCH   2  16
BRANCH   1  21
HETATM   21  C   UNL     1       9.354  17.336   0.682  1.00  0.00     0.101 C 
BRANCH  21  22
HETATM   22  N   UNL     1       9.782  18.396   0.525  1.00  0.00    -0.295 N 
ATOM     23  HN  UNL     1      10.029  18.658  -0.429  1.00  0.00     0.177 HD
BRANCH  22  24
HETATM   24  S   UNL     1      10.025  19.499   1.674  1.00  0.00     0.226 S 
HETATM   25  C   UNL     1       8.263  19.673   2.510  1.00  0.00     0.186 C 
HETATM   26  O   UNL     1      10.913  19.046   2.714  1.00  0.00    -0.206 OA
HETATM   27  O   UNL     1      10.352  20.772   1.143  1.00  0.00    -0.206 OA
ENDBRANCH  22  24
ENDBRANCH  21  22
ENDBRANCH   1  21
TORSDOF 10
ENDMDL
MODEL 8
REMARK VINA RESULT:    -5.455     23.465     25.973
REMARK INTER + INTRA:          -9.874
REMARK INTER:                  -8.422
REMARK INTRA:                  -1.452
REMARK UNBOUND:                -1.230
REMARK  10 active torsions:
REMARK  status: ('A' for Active; 'I' for Inactive)
REMARK    1  A    between atoms: S_2  and  N_5 
REMARK    2  A    between atoms: N_5  and  C_7 
REMARK    3  A    between atoms: C_7  and  C_8 
REMARK    4  A    between atoms: C_9  and  C_15 
REMARK    5  A    between atoms: C_9  and  C_10 
REMARK    6  A    between atoms: C_10  and  C_11 
REMARK    7  A    between atoms: C_11  and  C_12 
REMARK    8  A    between atoms: C_12  and  C_13 
REMARK    9  A    between atoms: C_15  and  C_16 
REMARK       I    between atoms: C_16  and  N_18 
REMARK   10  A    between atoms: N_18  and  C_20 
ROOT
HETATM    1  C   UNL     1       9.667  14.966   2.742  1.00  0.00     0.038 C 
HETATM    2  C   UNL     1       9.094  15.310   1.663  1.00  0.00     0.016 C 
ENDROOT
BRANCH   2   3
HETATM    3  C   UNL     1       8.203  14.574   1.628  1.00  0.00    -0.044 C 
BRANCH   3   4
HETATM    4  C   UNL     1       7.308  13.601   1.444  1.00  0.00     0.294 C 
HETATM    5  O   UNL     1       7.334  13.062   0.442  1.00  0.00    -0.258 OA
HETATM    6  N   UNL     1       6.518  13.481   2.507  1.00  0.00    -0.315 N 
ATOM      7  HN  UNL     1       6.634  14.076   3.328  1.00  0.00     0.170 HD
BRANCH   6   8
HETATM    8  C   UNL     1       5.623  12.602   2.455  1.00  0.00     0.060 A 
HETATM    9  C   UNL     1       4.432  12.481   1.893  1.00  0.00     0.117 A 
HETATM   10  N   UNL     1       3.444  11.877   1.601  1.00  0.00    -0.373 N 
HETATM   11  C   UNL     1       3.822  10.716   2.212  1.00  0.00     0.088 A 
ATOM     12  HN  UNL     1       2.608  12.137   1.077  1.00  0.00     0.164 HD
HETATM   13  C   UNL     1       4.838  10.458   2.838  1.00  0.00     0.030 A 
HETATM   14  C   UNL     1       5.896  11.212   3.109  1.00  0.00    -0.016 A 
HETATM   15  C   UNL     1       7.007  10.923   3.785  1.00  0.00     0.026 C 
ENDBRANCH   6   8
ENDBRANCH   3   4
ENDBRANCH   2   3
BRANCH   2  16
HETATM   16  C   UNL     1       9.094  16.612   0.730  1.00  0.00     0.020 C 
BRANCH  16  17
HETATM   17  C   UNL     1       8.939  17.643   0.818  1.00  0.00     0.001 C 
BRANCH  17  18
HETATM   18  C   UNL     1       7.684  18.324   0.998  1.00  0.00    -0.001 C 
BRANCH  18  19
HETATM   19  C   UNL     1       7.439  18.537   2.343  1.00  0.00    -0.010 C 
HETATM   20  C   UNL     1       6.826  18.560   3.041  1.00  0.00     0.011 C 
ENDBRANCH  18  19
ENDBRANCH  17  18
ENDBRANCH  16  17
ENDBRANCH   2  16
BRANCH   1  21
HETATM   21  C   UNL     1      10.417  15.017   3.690  1.00  0.00     0.101 C 
BRANCH  21  22
HETATM   22  N   UNL     1      10.705  15.065   4.807  1.00  0.00    -0.295 N 
ATOM     23  HN  UNL     1      11.564  14.589   5.083  1.00  0.00     0.177 HD
BRANCH  22  24
HETATM   24  S   UNL     1       9.877  15.812   5.969  1.00  0.00     0.226 S 
HETATM   25  C   UNL     1       9.768  17.659   5.326  1.00  0.00     0.186 C 
HETATM   26  O   UNL     1       8.516  15.351   6.079  1.00  0.00    -0.206 OA
HETATM   27  O   UNL     1      10.580  15.850   7.198  1.00  0.00    -0.206 OA
ENDBRANCH  22  24
ENDBRANCH  21  22
ENDBRANCH   1  21
TORSDOF 10
ENDMDL
MODEL 9
REMARK VINA RESULT:    -5.348      3.974      6.731
REMARK INTER + INTRA:          -9.705
REMARK INTER:                  -8.400
REMARK INTRA:                  -1.305
REMARK UNBOUND:                -1.230
REMARK  10 active torsions:
REMARK  status: ('A' for Active; 'I' for Inactive)
REMARK    1  A    between atoms: S_2  and  N_5 
REMARK    2  A    between atoms: N_5  and  C_7 
REMARK    3  A    between atoms: C_7  and  C_8 
REMARK    4  A    between atoms: C_9  and  C_15 
REMARK    5  A    between atoms: C_9  and  C_10 
REMARK    6  A    between atoms: C_10  and  C_11 
REMARK    7  A    between atoms: C_11  and  C_12 
REMARK    8  A    between atoms: C_12  and  C_13 
REMARK    9  A    between atoms: C_15  and  C_16 
REMARK       I    between atoms: C_16  and  N_18 
REMARK   10  A    between atoms: N_18  and  C_20 
ROOT
HETATM    1  C   UNL     1       5.934  -5.886  27.386  1.00  0.00     0.038 C 
HETATM    2  C   UNL     1       5.726  -5.729  26.144  1.00  0.00     0.016 C 
ENDROOT
BRANCH   2   3
HETATM    3  C   UNL     1       6.668  -5.140  25.824  1.00  0.00    -0.044 C 
BRANCH   3   4
HETATM    4  C   UNL     1       7.730  -4.569  25.251  1.00  0.00     0.294 C 
HETATM    5  O   UNL     1       8.694  -5.173  25.240  1.00  0.00    -0.258 OA
HETATM    6  N   UNL     1       7.432  -3.346  24.821  1.00  0.00    -0.315 N 
ATOM      7  HN  UNL     1       6.497  -2.953  24.935  1.00  0.00     0.170 HD
BRANCH   6   8
HETATM    8  C   UNL     1       8.354  -2.697  24.269  1.00  0.00     0.060 A 
HETATM    9  C   UNL     1       8.886  -2.629  23.060  1.00  0.00     0.117 A 
HETATM   10  N   UNL     1       9.623  -2.169  22.240  1.00  0.00    -0.373 N 
HETATM   11  C   UNL     1      10.170  -1.237  23.074  1.00  0.00     0.088 A 
ATOM     12  HN  UNL     1       9.786  -2.394  21.259  1.00  0.00     0.164 HD
HETATM   13  C   UNL     1       9.943  -1.014  24.253  1.00  0.00     0.030 A 
HETATM   14  C   UNL     1       9.088  -1.590  25.087  1.00  0.00    -0.016 A 
HETATM   15  C   UNL     1       8.836  -1.337  26.371  1.00  0.00     0.026 C 
ENDBRANCH   6   8
ENDBRANCH   3   4
ENDBRANCH   2   3
BRANCH   2  16
HETATM   16  C   UNL     1       4.809  -6.434  25.036  1.00  0.00     0.020 C 
BRANCH  16  17
HETATM   17  C   UNL     1       4.841  -6.661  24.015  1.00  0.00     0.001 C 
BRANCH  17  18
HETATM   18  C   UNL     1       4.896  -5.732  22.917  1.00  0.00    -0.001 C 
BRANCH  18  19
HETATM   19  C   UNL     1       6.093  -5.861  22.236  1.00  0.00    -0.010 C 
HETATM   20  C   UNL     1       6.585  -5.699  21.463  1.00  0.00     0.011 C 
ENDBRANCH  18  19
ENDBRANCH  17  18
ENDBRANCH  16  17
ENDBRANCH   2  16
BRANCH   1  21
HETATM   21  C   UNL     1       5.799  -6.315  28.509  1.00  0.00     0.101 C 
BRANCH  21  22
HETATM   22  N   UNL     1       5.446  -7.056  29.321  1.00  0.00    -0.295 N 
ATOM     23  HN  UNL     1       5.550  -8.050  29.117  1.00  0.00     0.177 HD
BRANCH  22  24
HETATM   24  S   UNL     1       4.805  -6.665  30.747  1.00  0.00     0.226 S 
HETATM   25  C   UNL     1       6.321  -6.818  31.978  1.00  0.00     0.186 C 
HETATM   26  O   UNL     1       4.377  -5.292  30.816  1.00  0.00    -0.206 OA
HETATM   27  O   UNL     1       3.833  -7.601  31.179  1.00  0.00    -0.206 OA
ENDBRANCH  22  24
ENDBRANCH  21  22
ENDBRANCH   1  21
TORSDOF 10
ENDMDL
