stable:False satoms:5 tatoms:24 sratio:0.20833333333333334
  -OEChem-07092417453D

 24 24  0     0  0  0  0  0  0999 V2000
    6.4376   -4.8936   26.4868 C   0  0  0  0  0  0  0  0  0  0  0  0
    8.2573   -4.2643   26.1263 S   0  0  0  0  0  0  0  0  0  0  0  0
    9.0820   -5.4444   26.0802 O   0  0  0  0  0  0  0  0  0  0  0  0
    8.5889   -3.3614   27.1656 O   0  0  0  0  0  0  0  0  0  0  0  0
    8.1183   -3.5336   24.6960 N   0  0  0  0  0  0  0  0  0  0  0  0
    8.9452   -2.9375   24.1548 C   0  0  0  0  0  0  0  0  0  0  0  0
    9.4246   -1.9977   23.5637 C   0  0  0  0  0  0  0  0  0  0  0  0
   10.1443   -0.9742   23.3491 C   0  0  0  0  0  0  0  0  0  0  0  0
   11.0993   -0.0379   24.2308 C   0  0  0  0  0  0  0  0  0  0  0  0
   12.0989    0.2703   24.2513 C   0  0  0  0  0  0  0  0  0  0  0  0
   13.1795   -0.2235   23.4396 C   0  0  0  0  0  0  0  0  0  0  0  0
   12.7434   -1.2566   22.6295 C   0  0  0  0  0  0  0  0  0  0  0  0
   12.0399   -1.7922   22.3403 C   0  0  0  0  0  0  0  0  0  0  0  0
    9.6855   -0.5697   22.3677 C   0  0  0  0  0  0  0  0  0  0  0  0
    9.0441    0.0466   21.3728 C   0  0  0  0  0  0  0  0  0  0  0  0
    9.5448    0.9677   20.9321 O   0  0  0  0  0  0  0  0  0  0  0  0
    7.8865   -0.5551   21.1149 N   0  0  0  0  0  0  0  0  0  0  0  0
    7.1800   -0.0621   20.2013 C   0  0  0  0  0  0  0  0  0  0  0  0
    7.2456    0.0263   18.8834 C   0  0  0  0  0  0  0  0  0  0  0  0
    6.8135    0.3184   17.8075 N   0  0  0  0  0  0  0  0  0  0  0  0
    5.6376    0.8259   18.2805 C   0  0  0  0  0  0  0  0  0  0  0  0
    5.2347    0.9271   19.4278 C   0  0  0  0  0  0  0  0  0  0  0  0
    5.8002    0.5642   20.5720 C   0  0  0  0  0  0  0  0  0  0  0  0
    5.3526    0.6672   21.8225 C   0  0  0  0  0  0  0  0  0  0  0  0
 20 21  2  0  0  0  0
 19 20  1  0  0  0  0
 21 22  1  0  0  0  0
 18 19  2  0  0  0  0
 22 23  2  0  0  0  0
 18 23  1  0  0  0  0
 17 18  1  0  0  0  0
 23 24  1  0  0  0  0
 15 16  2  0  0  0  0
 15 17  1  0  0  0  0
 14 15  1  0  0  0  0
 12 13  2  0  0  0  0
  8 14  2  3  0  0  0
 11 12  1  0  0  0  0
  7  8  1  0  0  0  0
  8  9  1  0  0  0  0
 10 11  1  0  0  0  0
  6  7  3  0  0  0  0
  5  6  1  0  0  0  0
  9 10  2  0  0  0  0
  2  5  1  0  0  0  0
  2  3  2  0  0  0  0
  1  2  1  0  0  0  0
  2  4  2  0  0  0  0
M  END
> <Shapegauss>
-283.354736

$$$$
