MODEL 1
REMARK VINA RESULT:    -7.871      0.000      0.000
REMARK INTER + INTRA:         -10.633
REMARK INTER:                  -9.712
REMARK INTRA:                  -0.921
REMARK UNBOUND:                -0.921
REMARK  4 active torsions:
REMARK  status: ('A' for Active; 'I' for Inactive)
REMARK    1  A    between atoms: S_2  and  N_5 
REMARK    2  A    between atoms: N_5  and  C_7 
REMARK    3  A    between atoms: C_15  and  C_16 
REMARK       I    between atoms: C_16  and  N_18 
REMARK    4  A    between atoms: N_18  and  C_20 
ROOT
HETATM    1  C   UNL     1       9.287  -0.091  21.231  1.00  0.00     0.109 C 
HETATM    2  C   UNL     1       9.681  -0.613  22.280  1.00  0.00    -0.008 A 
HETATM    3  C   UNL     1      10.629  -0.919  23.077  1.00  0.00     0.058 A 
HETATM    4  C   UNL     1      12.000  -1.738  22.809  1.00  0.00    -0.003 C 
HETATM    5  C   UNL     1      12.982  -1.508  23.322  1.00  0.00    -0.002 C 
HETATM    6  C   UNL     1      13.365  -0.539  24.175  1.00  0.00    -0.001 C 
HETATM    7  C   UNL     1      12.267   0.436  24.409  1.00  0.00    -0.002 C 
HETATM    8  C   UNL     1      11.299   0.441  24.010  1.00  0.00    -0.003 C 
HETATM    9  C   UNL     1       9.837  -1.496  23.838  1.00  0.00     0.040 A 
ENDROOT
BRANCH   9  10
HETATM   10  C   UNL     1       9.090  -2.151  24.710  1.00  0.00     0.254 C 
HETATM   11  O   UNL     1       8.824  -1.588  25.673  1.00  0.00    -0.268 OA
HETATM   12  N   UNL     1       8.820  -3.374  24.310  1.00  0.00    -0.321 N 
ATOM     13  HN  UNL     1       9.163  -3.703  23.407  1.00  0.00     0.169 HD
BRANCH  12  14
HETATM   14  C   UNL     1       8.137  -4.141  25.041  1.00  0.00     0.056 A 
HETATM   15  C   UNL     1       8.384  -4.945  26.067  1.00  0.00     0.117 A 
HETATM   16  N   UNL     1       8.029  -5.704  26.939  1.00  0.00    -0.373 N 
HETATM   17  C   UNL     1       6.671  -5.754  26.639  1.00  0.00     0.088 A 
ATOM     18  HN  UNL     1       8.563  -6.167  27.674  1.00  0.00     0.164 HD
HETATM   19  C   UNL     1       6.125  -5.104  25.750  1.00  0.00     0.026 A 
HETATM   20  C   UNL     1       6.588  -4.238  24.833  1.00  0.00    -0.033 A 
HETATM   21  C   UNL     1       5.849  -3.489  23.756  1.00  0.00     0.050 C 
ENDBRANCH  12  14
ENDBRANCH   9  10
BRANCH   1  22
HETATM   22  N   UNL     1       8.581  -0.035  20.223  1.00  0.00    -0.295 N 
ATOM     23  HN  UNL     1       9.061  -0.081  19.325  1.00  0.00     0.177 HD
BRANCH  22  24
HETATM   24  S   UNL     1       7.022   0.098  20.177  1.00  0.00     0.226 S 
HETATM   25  C   UNL     1       6.662   1.442  21.252  1.00  0.00     0.186 C 
HETATM   26  O   UNL     1       6.519   0.467  18.869  1.00  0.00    -0.206 OA
HETATM   27  O   UNL     1       6.347  -1.068  20.679  1.00  0.00    -0.206 OA
ENDBRANCH  22  24
ENDBRANCH   1  22
TORSDOF 4
ENDMDL
MODEL 2
REMARK VINA RESULT:    -7.794      2.554      5.913
REMARK INTER + INTRA:         -10.537
REMARK INTER:                  -9.762
REMARK INTRA:                  -0.776
REMARK UNBOUND:                -0.921
REMARK  4 active torsions:
REMARK  status: ('A' for Active; 'I' for Inactive)
REMARK    1  A    between atoms: S_2  and  N_5 
REMARK    2  A    between atoms: N_5  and  C_7 
REMARK    3  A    between atoms: C_15  and  C_16 
REMARK       I    between atoms: C_16  and  N_18 
REMARK    4  A    between atoms: N_18  and  C_20 
ROOT
HETATM    1  C   UNL     1       8.606  -3.492  23.905  1.00  0.00     0.109 C 
HETATM    2  C   UNL     1       8.939  -2.402  23.425  1.00  0.00    -0.008 A 
HETATM    3  C   UNL     1       9.633  -1.332  23.479  1.00  0.00     0.058 A 
HETATM    4  C   UNL     1       9.760  -0.224  24.653  1.00  0.00    -0.003 C 
HETATM    5  C   UNL     1      10.716   0.331  24.895  1.00  0.00    -0.002 C 
HETATM    6  C   UNL     1      11.974   0.235  24.424  1.00  0.00    -0.001 C 
HETATM    7  C   UNL     1      12.099  -0.874  23.442  1.00  0.00    -0.002 C 
HETATM    8  C   UNL     1      11.361  -1.535  23.103  1.00  0.00    -0.003 C 
HETATM    9  C   UNL     1       9.106  -0.908  22.440  1.00  0.00     0.040 A 
ENDROOT
BRANCH   9  10
HETATM   10  C   UNL     1       8.601  -0.349  21.352  1.00  0.00     0.254 C 
HETATM   11  O   UNL     1       9.314   0.312  20.745  1.00  0.00    -0.268 OA
HETATM   12  N   UNL     1       7.329  -0.640  21.193  1.00  0.00    -0.321 N 
ATOM     13  HN  UNL     1       6.857  -1.250  21.860  1.00  0.00     0.169 HD
BRANCH  12  14
HETATM   14  C   UNL     1       6.690  -0.163  20.215  1.00  0.00     0.056 A 
HETATM   15  C   UNL     1       6.388  -0.570  18.989  1.00  0.00     0.117 A 
HETATM   16  N   UNL     1       5.833  -0.430  17.924  1.00  0.00    -0.373 N 
HETATM   17  C   UNL     1       5.289   0.834  18.131  1.00  0.00     0.088 A 
ATOM     18  HN  UNL     1       5.780  -1.051  17.117  1.00  0.00     0.164 HD
HETATM   19  C   UNL     1       5.377   1.473  19.177  1.00  0.00     0.026 A 
HETATM   20  C   UNL     1       5.987   1.228  20.350  1.00  0.00    -0.033 A 
HETATM   21  C   UNL     1       6.064   2.079  21.589  1.00  0.00     0.050 C 
ENDBRANCH  12  14
ENDBRANCH   9  10
BRANCH   1  22
HETATM   22  N   UNL     1       7.792  -4.370  24.189  1.00  0.00    -0.295 N 
ATOM     23  HN  UNL     1       7.966  -4.896  25.045  1.00  0.00     0.177 HD
BRANCH  22  24
HETATM   24  S   UNL     1       6.516  -4.765  23.374  1.00  0.00     0.226 S 
HETATM   25  C   UNL     1       7.136  -5.637  21.978  1.00  0.00     0.186 C 
HETATM   26  O   UNL     1       5.645  -5.681  24.082  1.00  0.00    -0.206 OA
HETATM   27  O   UNL     1       5.783  -3.623  22.896  1.00  0.00    -0.206 OA
ENDBRANCH  22  24
ENDBRANCH   1  22
TORSDOF 4
ENDMDL
MODEL 3
REMARK VINA RESULT:    -7.412      3.425      7.508
REMARK INTER + INTRA:         -10.066
REMARK INTER:                  -9.272
REMARK INTRA:                  -0.794
REMARK UNBOUND:                -0.921
REMARK  4 active torsions:
REMARK  status: ('A' for Active; 'I' for Inactive)
REMARK    1  A    between atoms: S_2  and  N_5 
REMARK    2  A    between atoms: N_5  and  C_7 
REMARK    3  A    between atoms: C_15  and  C_16 
REMARK       I    between atoms: C_16  and  N_18 
REMARK    4  A    between atoms: N_18  and  C_20 
ROOT
HETATM    1  C   UNL     1       7.062  -5.597  26.654  1.00  0.00     0.109 C 
HETATM    2  C   UNL     1       7.212  -4.864  25.669  1.00  0.00    -0.008 A 
HETATM    3  C   UNL     1       7.108  -4.659  24.414  1.00  0.00     0.058 A 
HETATM    4  C   UNL     1       7.672  -5.517  23.162  1.00  0.00    -0.003 C 
HETATM    5  C   UNL     1       7.127  -5.629  22.177  1.00  0.00    -0.002 C 
HETATM    6  C   UNL     1       5.917  -5.220  21.749  1.00  0.00    -0.001 C 
HETATM    7  C   UNL     1       5.158  -4.552  22.840  1.00  0.00    -0.002 C 
HETATM    8  C   UNL     1       5.450  -4.378  23.830  1.00  0.00    -0.003 C 
HETATM    9  C   UNL     1       7.623  -3.536  24.529  1.00  0.00     0.040 A 
ENDROOT
BRANCH   9  10
HETATM   10  C   UNL     1       8.174  -2.334  24.530  1.00  0.00     0.254 C 
HETATM   11  O   UNL     1       7.573  -1.501  25.039  1.00  0.00    -0.268 OA
HETATM   12  N   UNL     1       9.325  -2.318  23.894  1.00  0.00    -0.321 N 
ATOM     13  HN  UNL     1       9.698  -3.178  23.492  1.00  0.00     0.169 HD
BRANCH  12  14
HETATM   14  C   UNL     1       9.969  -1.240  23.783  1.00  0.00     0.056 A 
HETATM   15  C   UNL     1      10.890  -0.605  24.496  1.00  0.00     0.117 A 
HETATM   16  N   UNL     1      11.672   0.303  24.666  1.00  0.00    -0.373 N 
HETATM   17  C   UNL     1      11.383   1.050  23.527  1.00  0.00     0.088 A 
ATOM     18  HN  UNL     1      12.341   0.470  25.417  1.00  0.00     0.164 HD
HETATM   19  C   UNL     1      10.583   0.718  22.655  1.00  0.00     0.026 A 
HETATM   20  C   UNL     1       9.769  -0.342  22.516  1.00  0.00    -0.033 A 
HETATM   21  C   UNL     1       8.796  -0.670  21.414  1.00  0.00     0.050 C 
ENDBRANCH  12  14
ENDBRANCH   9  10
BRANCH   1  22
HETATM   22  N   UNL     1       7.407  -6.079  27.733  1.00  0.00    -0.295 N 
ATOM     23  HN  UNL     1       8.402  -6.263  27.854  1.00  0.00     0.177 HD
BRANCH  22  24
HETATM   24  S   UNL     1       6.477  -6.438  28.939  1.00  0.00     0.226 S 
HETATM   25  C   UNL     1       4.885  -6.649  28.221  1.00  0.00     0.186 C 
HETATM   26  O   UNL     1       6.818  -7.698  29.568  1.00  0.00    -0.206 OA
HETATM   27  O   UNL     1       6.391  -5.383  29.912  1.00  0.00    -0.206 OA
ENDBRANCH  22  24
ENDBRANCH   1  22
TORSDOF 4
ENDMDL
MODEL 4
REMARK VINA RESULT:    -6.869      2.730      6.110
REMARK INTER + INTRA:          -9.396
REMARK INTER:                  -8.646
REMARK INTRA:                  -0.750
REMARK UNBOUND:                -0.921
REMARK  4 active torsions:
REMARK  status: ('A' for Active; 'I' for Inactive)
REMARK    1  A    between atoms: S_2  and  N_5 
REMARK    2  A    between atoms: N_5  and  C_7 
REMARK    3  A    between atoms: C_15  and  C_16 
REMARK       I    between atoms: C_16  and  N_18 
REMARK    4  A    between atoms: N_18  and  C_20 
ROOT
HETATM    1  C   UNL     1       8.571  -3.439  23.979  1.00  0.00     0.109 C 
HETATM    2  C   UNL     1       8.876  -2.306  23.587  1.00  0.00    -0.008 A 
HETATM    3  C   UNL     1       9.610  -1.265  23.667  1.00  0.00     0.058 A 
HETATM    4  C   UNL     1       9.936  -0.309  24.932  1.00  0.00    -0.003 C 
HETATM    5  C   UNL     1      10.935   0.193  25.102  1.00  0.00    -0.002 C 
HETATM    6  C   UNL     1      12.114   0.129  24.453  1.00  0.00    -0.001 C 
HETATM    7  C   UNL     1      12.064  -0.858  23.342  1.00  0.00    -0.002 C 
HETATM    8  C   UNL     1      11.263  -1.458  23.034  1.00  0.00    -0.003 C 
HETATM    9  C   UNL     1       8.963  -0.709  22.767  1.00  0.00     0.040 A 
ENDROOT
BRANCH   9  10
HETATM   10  C   UNL     1       8.337  -0.014  21.832  1.00  0.00     0.254 C 
HETATM   11  O   UNL     1       9.003   0.513  21.061  1.00  0.00    -0.268 OA
HETATM   12  N   UNL     1       7.033  -0.032  21.994  1.00  0.00    -0.321 N 
ATOM     13  HN  UNL     1       6.621  -0.561  22.763  1.00  0.00     0.169 HD
BRANCH  12  14
HETATM   14  C   UNL     1       6.289   0.605  21.199  1.00  0.00     0.056 A 
HETATM   15  C   UNL     1       5.898   1.866  21.068  1.00  0.00     0.117 A 
HETATM   16  N   UNL     1       5.308   2.746  20.484  1.00  0.00    -0.373 N 
HETATM   17  C   UNL     1       4.731   1.983  19.473  1.00  0.00     0.088 A 
ATOM     18  HN  UNL     1       5.250   3.746  20.676  1.00  0.00     0.164 HD
HETATM   19  C   UNL     1       4.917   0.779  19.311  1.00  0.00     0.026 A 
HETATM   20  C   UNL     1       5.630  -0.136  19.988  1.00  0.00    -0.033 A 
HETATM   21  C   UNL     1       5.792  -1.611  19.733  1.00  0.00     0.050 C 
ENDBRANCH  12  14
ENDBRANCH   9  10
BRANCH   1  22
HETATM   22  N   UNL     1       7.770  -4.328  24.270  1.00  0.00    -0.295 N 
ATOM     23  HN  UNL     1       7.267  -4.760  23.496  1.00  0.00     0.177 HD
BRANCH  22  24
HETATM   24  S   UNL     1       7.445  -4.863  25.704  1.00  0.00     0.226 S 
HETATM   25  C   UNL     1       6.930  -3.440  26.600  1.00  0.00     0.186 C 
HETATM   26  O   UNL     1       6.333  -5.793  25.728  1.00  0.00    -0.206 OA
HETATM   27  O   UNL     1       8.594  -5.416  26.368  1.00  0.00    -0.206 OA
ENDBRANCH  22  24
ENDBRANCH   1  22
TORSDOF 4
ENDMDL
MODEL 5
REMARK VINA RESULT:    -6.833      3.596      7.717
REMARK INTER + INTRA:          -9.351
REMARK INTER:                  -8.567
REMARK INTRA:                  -0.785
REMARK UNBOUND:                -0.921
REMARK  4 active torsions:
REMARK  status: ('A' for Active; 'I' for Inactive)
REMARK    1  A    between atoms: S_2  and  N_5 
REMARK    2  A    between atoms: N_5  and  C_7 
REMARK    3  A    between atoms: C_15  and  C_16 
REMARK       I    between atoms: C_16  and  N_18 
REMARK    4  A    between atoms: N_18  and  C_20 
ROOT
HETATM    1  C   UNL     1       6.824  -5.671  26.533  1.00  0.00     0.109 C 
HETATM    2  C   UNL     1       6.745  -4.958  25.526  1.00  0.00    -0.008 A 
HETATM    3  C   UNL     1       6.663  -4.834  24.258  1.00  0.00     0.058 A 
HETATM    4  C   UNL     1       7.611  -5.423  23.085  1.00  0.00    -0.003 C 
HETATM    5  C   UNL     1       7.229  -5.761  22.076  1.00  0.00    -0.002 C 
HETATM    6  C   UNL     1       5.992  -5.873  21.556  1.00  0.00    -0.001 C 
HETATM    7  C   UNL     1       4.952  -5.540  22.566  1.00  0.00    -0.002 C 
HETATM    8  C   UNL     1       5.077  -5.246  23.562  1.00  0.00    -0.003 C 
HETATM    9  C   UNL     1       6.683  -3.598  24.352  1.00  0.00     0.040 A 
ENDROOT
BRANCH   9  10
HETATM   10  C   UNL     1       6.715  -2.276  24.330  1.00  0.00     0.254 C 
HETATM   11  O   UNL     1       5.897  -1.740  24.930  1.00  0.00    -0.268 OA
HETATM   12  N   UNL     1       7.685  -1.818  23.570  1.00  0.00    -0.321 N 
ATOM     13  HN  UNL     1       8.315  -2.467  23.100  1.00  0.00     0.169 HD
BRANCH  12  14
HETATM   14  C   UNL     1       7.836  -0.574  23.421  1.00  0.00     0.056 A 
HETATM   15  C   UNL     1       7.301   0.362  22.649  1.00  0.00     0.117 A 
HETATM   16  N   UNL     1       7.173   1.513  22.298  1.00  0.00    -0.373 N 
HETATM   17  C   UNL     1       8.126   2.097  23.128  1.00  0.00     0.088 A 
ATOM     18  HN  UNL     1       6.555   1.929  21.602  1.00  0.00     0.164 HD
HETATM   19  C   UNL     1       8.783   1.494  23.974  1.00  0.00     0.026 A 
HETATM   20  C   UNL     1       8.839   0.202  24.338  1.00  0.00    -0.033 A 
HETATM   21  C   UNL     1       9.693  -0.467  25.383  1.00  0.00     0.050 C 
ENDBRANCH  12  14
ENDBRANCH   9  10
BRANCH   1  22
HETATM   22  N   UNL     1       7.249  -5.956  27.653  1.00  0.00    -0.295 N 
ATOM     23  HN  UNL     1       8.261  -5.948  27.774  1.00  0.00     0.177 HD
BRANCH  22  24
HETATM   24  S   UNL     1       6.397  -6.329  28.912  1.00  0.00     0.226 S 
HETATM   25  C   UNL     1       4.773  -6.581  28.288  1.00  0.00     0.186 C 
HETATM   26  O   UNL     1       6.803  -7.577  29.527  1.00  0.00    -0.206 OA
HETATM   27  O   UNL     1       6.342  -5.270  29.883  1.00  0.00    -0.206 OA
ENDBRANCH  22  24
ENDBRANCH   1  22
TORSDOF 4
ENDMDL
MODEL 6
REMARK VINA RESULT:    -6.777     13.927     16.358
REMARK INTER + INTRA:          -9.282
REMARK INTER:                  -8.455
REMARK INTRA:                  -0.827
REMARK UNBOUND:                -0.921
REMARK  4 active torsions:
REMARK  status: ('A' for Active; 'I' for Inactive)
REMARK    1  A    between atoms: S_2  and  N_5 
REMARK    2  A    between atoms: N_5  and  C_7 
REMARK    3  A    between atoms: C_15  and  C_16 
REMARK       I    between atoms: C_16  and  N_18 
REMARK    4  A    between atoms: N_18  and  C_20 
ROOT
HETATM    1  C   UNL     1      24.210  -4.005  24.423  1.00  0.00     0.109 C 
HETATM    2  C   UNL     1      23.851  -3.000  23.797  1.00  0.00    -0.008 A 
HETATM    3  C   UNL     1      23.170  -1.924  23.725  1.00  0.00     0.058 A 
HETATM    4  C   UNL     1      21.585  -1.670  23.940  1.00  0.00    -0.003 C 
HETATM    5  C   UNL     1      21.154  -0.733  24.404  1.00  0.00    -0.002 C 
HETATM    6  C   UNL     1      21.718   0.354  24.964  1.00  0.00    -0.001 C 
HETATM    7  C   UNL     1      23.198   0.224  25.021  1.00  0.00    -0.002 C 
HETATM    8  C   UNL     1      23.799  -0.567  24.691  1.00  0.00    -0.003 C 
HETATM    9  C   UNL     1      23.560  -1.725  22.565  1.00  0.00     0.040 A 
ENDROOT
BRANCH   9  10
HETATM   10  C   UNL     1      23.895  -1.421  21.322  1.00  0.00     0.254 C 
HETATM   11  O   UNL     1      24.807  -0.737  21.196  1.00  0.00    -0.268 OA
HETATM   12  N   UNL     1      23.069  -1.948  20.445  1.00  0.00    -0.321 N 
ATOM     13  HN  UNL     1      22.294  -2.531  20.760  1.00  0.00     0.169 HD
BRANCH  12  14
HETATM   14  C   UNL     1      23.235  -1.732  19.213  1.00  0.00     0.056 A 
HETATM   15  C   UNL     1      22.887  -0.777  18.361  1.00  0.00     0.117 A 
HETATM   16  N   UNL     1      22.900  -0.268  17.263  1.00  0.00    -0.373 N 
HETATM   17  C   UNL     1      23.624  -1.243  16.584  1.00  0.00     0.088 A 
ATOM     18  HN  UNL     1      22.500   0.611  16.935  1.00  0.00     0.164 HD
HETATM   19  C   UNL     1      24.105  -2.248  17.102  1.00  0.00     0.026 A 
HETATM   20  C   UNL     1      24.082  -2.731  18.356  1.00  0.00    -0.033 A 
HETATM   21  C   UNL     1      24.687  -3.993  18.912  1.00  0.00     0.050 C 
ENDBRANCH  12  14
ENDBRANCH   9  10
BRANCH   1  22
HETATM   22  N   UNL     1      24.502  -5.197  24.523  1.00  0.00    -0.295 N 
ATOM     23  HN  UNL     1      24.550  -5.730  23.655  1.00  0.00     0.177 HD
BRANCH  22  24
HETATM   24  S   UNL     1      24.806  -5.980  25.843  1.00  0.00     0.226 S 
HETATM   25  C   UNL     1      24.362  -4.867  27.129  1.00  0.00     0.186 C 
HETATM   26  O   UNL     1      23.980  -7.160  26.011  1.00  0.00    -0.206 OA
HETATM   27  O   UNL     1      26.199  -6.301  25.993  1.00  0.00    -0.206 OA
ENDBRANCH  22  24
ENDBRANCH   1  22
TORSDOF 4
ENDMDL
MODEL 7
REMARK VINA RESULT:    -6.561      5.919      8.731
REMARK INTER + INTRA:          -9.015
REMARK INTER:                  -8.173
REMARK INTRA:                  -0.842
REMARK UNBOUND:                -0.921
REMARK  4 active torsions:
REMARK  status: ('A' for Active; 'I' for Inactive)
REMARK    1  A    between atoms: S_2  and  N_5 
REMARK    2  A    between atoms: N_5  and  C_7 
REMARK    3  A    between atoms: C_15  and  C_16 
REMARK       I    between atoms: C_16  and  N_18 
REMARK    4  A    between atoms: N_18  and  C_20 
ROOT
HETATM    1  C   UNL     1       5.598  -6.306  25.881  1.00  0.00     0.109 C 
HETATM    2  C   UNL     1       4.955  -5.984  24.875  1.00  0.00    -0.008 A 
HETATM    3  C   UNL     1       4.865  -5.344  23.775  1.00  0.00     0.058 A 
HETATM    4  C   UNL     1       5.080  -3.771  23.457  1.00  0.00    -0.003 C 
HETATM    5  C   UNL     1       5.528  -3.377  22.496  1.00  0.00    -0.002 C 
HETATM    6  C   UNL     1       6.066  -3.984  21.421  1.00  0.00    -0.001 C 
HETATM    7  C   UNL     1       6.122  -5.459  21.607  1.00  0.00    -0.002 C 
HETATM    8  C   UNL     1       5.804  -6.028  22.426  1.00  0.00    -0.003 C 
HETATM    9  C   UNL     1       3.700  -5.737  23.612  1.00  0.00     0.040 A 
ENDROOT
BRANCH   9  10
HETATM   10  C   UNL     1       2.451  -6.079  23.344  1.00  0.00     0.254 C 
HETATM   11  O   UNL     1       1.649  -5.292  23.572  1.00  0.00    -0.268 OA
HETATM   12  N   UNL     1       2.363  -7.309  22.888  1.00  0.00    -0.321 N 
ATOM     13  HN  UNL     1       3.207  -7.868  22.761  1.00  0.00     0.169 HD
BRANCH  12  14
HETATM   14  C   UNL     1       1.235  -7.799  22.607  1.00  0.00     0.056 A 
HETATM   15  C   UNL     1       0.405  -7.740  21.574  1.00  0.00     0.117 A 
HETATM   16  N   UNL     1      -0.608  -8.065  20.998  1.00  0.00    -0.373 N 
HETATM   17  C   UNL     1      -1.162  -8.879  21.982  1.00  0.00     0.088 A 
ATOM     18  HN  UNL     1      -0.953  -7.817  20.071  1.00  0.00     0.164 HD
HETATM   19  C   UNL     1      -0.624  -9.148  23.054  1.00  0.00     0.026 A 
HETATM   20  C   UNL     1       0.539  -8.774  23.614  1.00  0.00    -0.033 A 
HETATM   21  C   UNL     1       1.123  -9.139  24.953  1.00  0.00     0.050 C 
ENDBRANCH  12  14
ENDBRANCH   9  10
BRANCH   1  22
HETATM   22  N   UNL     1       5.718  -6.553  27.082  1.00  0.00    -0.295 N 
ATOM     23  HN  UNL     1       5.287  -7.414  27.417  1.00  0.00     0.177 HD
BRANCH  22  24
HETATM   24  S   UNL     1       6.464  -5.683  28.147  1.00  0.00     0.226 S 
HETATM   25  C   UNL     1       5.294  -4.455  28.612  1.00  0.00     0.186 C 
HETATM   26  O   UNL     1       6.797  -6.416  29.352  1.00  0.00    -0.206 OA
HETATM   27  O   UNL     1       7.621  -5.016  27.614  1.00  0.00    -0.206 OA
ENDBRANCH  22  24
ENDBRANCH   1  22
TORSDOF 4
ENDMDL
MODEL 8
REMARK VINA RESULT:    -6.506      2.070      2.274
REMARK INTER + INTRA:          -8.948
REMARK INTER:                  -8.090
REMARK INTRA:                  -0.858
REMARK UNBOUND:                -0.921
REMARK  4 active torsions:
REMARK  status: ('A' for Active; 'I' for Inactive)
REMARK    1  A    between atoms: S_2  and  N_5 
REMARK    2  A    between atoms: N_5  and  C_7 
REMARK    3  A    between atoms: C_15  and  C_16 
REMARK       I    between atoms: C_16  and  N_18 
REMARK    4  A    between atoms: N_18  and  C_20 
ROOT
HETATM    1  C   UNL     1       8.992   1.648  23.333  1.00  0.00     0.109 C 
HETATM    2  C   UNL     1       9.418   0.576  23.779  1.00  0.00    -0.008 A 
HETATM    3  C   UNL     1      10.326  -0.320  23.834  1.00  0.00     0.058 A 
HETATM    4  C   UNL     1      11.026  -1.175  22.652  1.00  0.00    -0.003 C 
HETATM    5  C   UNL     1      12.112  -1.492  22.661  1.00  0.00    -0.002 C 
HETATM    6  C   UNL     1      13.132  -1.240  23.504  1.00  0.00    -0.001 C 
HETATM    7  C   UNL     1      12.720  -0.303  24.583  1.00  0.00    -0.002 C 
HETATM    8  C   UNL     1      11.786   0.141  24.742  1.00  0.00    -0.003 C 
HETATM    9  C   UNL     1       9.641  -1.001  24.613  1.00  0.00     0.040 A 
ENDROOT
BRANCH   9  10
HETATM   10  C   UNL     1       8.995  -1.815  25.430  1.00  0.00     0.254 C 
HETATM   11  O   UNL     1       8.832  -1.436  26.500  1.00  0.00    -0.268 OA
HETATM   12  N   UNL     1       8.688  -2.955  24.850  1.00  0.00    -0.321 N 
ATOM     13  HN  UNL     1       8.932  -3.112  23.873  1.00  0.00     0.169 HD
BRANCH  12  14
HETATM   14  C   UNL     1       8.090  -3.854  25.503  1.00  0.00     0.056 A 
HETATM   15  C   UNL     1       8.446  -4.799  26.362  1.00  0.00     0.117 A 
HETATM   16  N   UNL     1       8.187  -5.700  27.127  1.00  0.00    -0.373 N 
HETATM   17  C   UNL     1       6.809  -5.754  26.935  1.00  0.00     0.088 A 
ATOM     18  HN  UNL     1       8.795  -6.252  27.731  1.00  0.00     0.164 HD
HETATM   19  C   UNL     1       6.172  -4.993  26.211  1.00  0.00     0.026 A 
HETATM   20  C   UNL     1       6.532  -3.975  25.410  1.00  0.00    -0.033 A 
HETATM   21  C   UNL     1       5.684  -3.095  24.532  1.00  0.00     0.050 C 
ENDBRANCH  12  14
ENDBRANCH   9  10
BRANCH   1  22
HETATM   22  N   UNL     1       8.110   2.391  22.901  1.00  0.00    -0.295 N 
ATOM     23  HN  UNL     1       8.295   2.848  22.009  1.00  0.00     0.177 HD
BRANCH  22  24
HETATM   24  S   UNL     1       6.736   2.707  23.579  1.00  0.00     0.226 S 
HETATM   25  C   UNL     1       5.907   3.750  22.432  1.00  0.00     0.186 C 
HETATM   26  O   UNL     1       5.902   1.535  23.753  1.00  0.00    -0.206 OA
HETATM   27  O   UNL     1       6.876   3.428  24.816  1.00  0.00    -0.206 OA
ENDBRANCH  22  24
ENDBRANCH   1  22
TORSDOF 4
ENDMDL
MODEL 9
REMARK VINA RESULT:    -6.414     13.888     16.378
REMARK INTER + INTRA:          -8.835
REMARK INTER:                  -8.032
REMARK INTRA:                  -0.803
REMARK UNBOUND:                -0.921
REMARK  4 active torsions:
REMARK  status: ('A' for Active; 'I' for Inactive)
REMARK    1  A    between atoms: S_2  and  N_5 
REMARK    2  A    between atoms: N_5  and  C_7 
REMARK    3  A    between atoms: C_15  and  C_16 
REMARK       I    between atoms: C_16  and  N_18 
REMARK    4  A    between atoms: N_18  and  C_20 
ROOT
HETATM    1  C   UNL     1      24.114  -4.400  24.866  1.00  0.00     0.109 C 
HETATM    2  C   UNL     1      23.725  -3.383  25.452  1.00  0.00    -0.008 A 
HETATM    3  C   UNL     1      23.124  -2.257  25.440  1.00  0.00     0.058 A 
HETATM    4  C   UNL     1      23.359  -0.954  24.508  1.00  0.00    -0.003 C 
HETATM    5  C   UNL     1      22.528  -0.275  24.152  1.00  0.00    -0.002 C 
HETATM    6  C   UNL     1      21.188  -0.327  24.275  1.00  0.00    -0.001 C 
HETATM    7  C   UNL     1      20.758  -1.573  24.962  1.00  0.00    -0.002 C 
HETATM    8  C   UNL     1      21.349  -2.352  25.336  1.00  0.00    -0.003 C 
HETATM    9  C   UNL     1      23.385  -2.076  26.638  1.00  0.00     0.040 A 
ENDROOT
BRANCH   9  10
HETATM   10  C   UNL     1      23.620  -1.768  27.903  1.00  0.00     0.254 C 
HETATM   11  O   UNL     1      23.782  -0.656  28.132  1.00  0.00    -0.268 OA
HETATM   12  N   UNL     1      23.661  -2.834  28.671  1.00  0.00    -0.321 N 
ATOM     13  HN  UNL     1      23.498  -3.758  28.270  1.00  0.00     0.169 HD
BRANCH  12  14
HETATM   14  C   UNL     1      23.900  -2.715  29.903  1.00  0.00     0.056 A 
HETATM   15  C   UNL     1      23.172  -2.571  31.003  1.00  0.00     0.117 A 
HETATM   16  N   UNL     1      23.058  -2.481  32.204  1.00  0.00    -0.373 N 
HETATM   17  C   UNL     1      24.406  -2.502  32.550  1.00  0.00     0.088 A 
ATOM     18  HN  UNL     1      22.224  -2.411  32.787  1.00  0.00     0.164 HD
HETATM   19  C   UNL     1      25.331  -2.644  31.754  1.00  0.00     0.026 A 
HETATM   20  C   UNL     1      25.377  -2.780  30.418  1.00  0.00    -0.033 A 
HETATM   21  C   UNL     1      26.566  -2.933  29.506  1.00  0.00     0.050 C 
ENDBRANCH  12  14
ENDBRANCH   9  10
BRANCH   1  22
HETATM   22  N   UNL     1      24.929  -5.291  24.624  1.00  0.00    -0.295 N 
ATOM     23  HN  UNL     1      25.481  -5.186  23.773  1.00  0.00     0.177 HD
BRANCH  22  24
HETATM   24  S   UNL     1      25.207  -6.566  25.487  1.00  0.00     0.226 S 
HETATM   25  C   UNL     1      26.090  -5.969  26.886  1.00  0.00     0.186 C 
HETATM   26  O   UNL     1      24.000  -7.188  25.993  1.00  0.00    -0.206 OA
HETATM   27  O   UNL     1      26.038  -7.526  24.812  1.00  0.00    -0.206 OA
ENDBRANCH  22  24
ENDBRANCH   1  22
TORSDOF 4
ENDMDL
