REMARK  9 active torsions:
REMARK  status: ('A' for Active; 'I' for Inactive)
REMARK    1  A    between atoms: S_2  and  N_5 
REMARK    2  A    between atoms: C_7  and  C_8 
REMARK    3  A    between atoms: C_8  and  C_9 
REMARK    4  A    between atoms: C_9  and  C_15 
REMARK    5  A    between atoms: C_9  and  C_14 
REMARK    6  A    between atoms: C_11  and  C_12 
REMARK    7  A    between atoms: C_13  and  C_14 
REMARK    8  A    between atoms: C_15  and  C_16 
REMARK       I    between atoms: C_16  and  N_18 
REMARK    9  A    between atoms: N_18  and  C_20 
ROOT
HETATM    1  C   UNL     1      10.307  -1.141  23.210  1.00  0.00     0.109 C 
ENDROOT
BRANCH   1   2
HETATM    2  C   UNL     1       9.402  -1.971  23.512  1.00  0.00     0.011 C 
BRANCH   2   3
HETATM    3  C   UNL     1       8.973  -2.932  24.137  1.00  0.00     0.097 C 
HETATM    4  N   UNL     1       8.133  -3.585  24.689  1.00  0.00    -0.296 N 
ATOM      5  HN  UNL     1       7.244  -3.675  24.197  1.00  0.00     0.177 HD
BRANCH   4   6
HETATM    6  S   UNL     1       8.229  -4.336  26.105  1.00  0.00     0.226 S 
HETATM    7  C   UNL     1       6.600  -4.896  26.422  1.00  0.00     0.186 C 
HETATM    8  O   UNL     1       9.074  -5.509  26.067  1.00  0.00    -0.206 OA
HETATM    9  O   UNL     1       8.615  -3.463  27.170  1.00  0.00    -0.206 OA
ENDBRANCH   4   6
ENDBRANCH   2   3
ENDBRANCH   1   2
BRANCH   1  10
HETATM   10  C   UNL     1       9.739  -0.566  22.370  1.00  0.00    -0.071 C 
BRANCH  10  11
HETATM   11  C   UNL     1       9.064   0.074  21.384  1.00  0.00     0.289 C 
HETATM   12  O   UNL     1       9.567   0.992  20.977  1.00  0.00    -0.259 OA
HETATM   13  N   UNL     1       7.915  -0.479  21.108  1.00  0.00    -0.315 N 
ATOM     14  HN  UNL     1       7.582  -1.248  21.689  1.00  0.00     0.170 HD
BRANCH  13  15
HETATM   15  C   UNL     1       7.209  -0.089  20.146  1.00  0.00     0.057 A 
HETATM   16  C   UNL     1       7.249  -0.014  18.847  1.00  0.00     0.117 A 
HETATM   17  N   UNL     1       6.825   0.293  17.758  1.00  0.00    -0.373 N 
HETATM   18  C   UNL     1       5.609   0.879  18.242  1.00  0.00     0.088 A 
ATOM     19  HN  UNL     1       7.202   0.176  16.818  1.00  0.00     0.164 HD
HETATM   20  C   UNL     1       5.254   0.959  19.357  1.00  0.00     0.026 A 
HETATM   21  C   UNL     1       5.782   0.581  20.522  1.00  0.00    -0.033 A 
HETATM   22  C   UNL     1       5.317   0.707  21.998  1.00  0.00     0.050 C 
ENDBRANCH  13  15
ENDBRANCH  10  11
ENDBRANCH   1  10
BRANCH   1  23
HETATM   23  C   UNL     1      11.813  -1.718  22.521  1.00  0.00    -0.006 C 
BRANCH  23  24
HETATM   24  C   UNL     1      12.717  -1.262  22.668  1.00  0.00    -0.002 C 
HETATM   25  C   UNL     1      13.136  -0.176  23.456  1.00  0.00    -0.001 C 
BRANCH  25  26
HETATM   26  C   UNL     1      12.013   0.306  24.266  1.00  0.00    -0.010 C 
HETATM   27  C   UNL     1      11.041   0.055  24.366  1.00  0.00     0.011 C 
ENDBRANCH  25  26
ENDBRANCH  23  24
ENDBRANCH   1  23
TORSDOF 9
