stable:False satoms:18 tatoms:24 sratio:0.75
  -OEChem-08052418103D

 22 24  0     1  0  0  0  0  0999 V2000
   -8.5432   -4.2679  -26.1308 C   0  0  0  0  0  0  0  0  0  0  0  0
   -7.2948   -3.0674  -23.4498 H   0  0  0  0  0  0  0  0  0  0  0  0
  -12.8977    2.1501  -24.6590 H   0  0  0  0  0  0  0  0  0  0  0  0
  -10.6070    1.6789  -25.5088 H   0  0  0  0  0  0  0  0  0  0  0  0
  -12.6259   -1.0206  -23.6837 C   0  0  0  0  0  0  0  0  0  0  0  0
  -12.4302    1.1842  -24.5481 C   0  0  0  0  0  0  0  0  0  0  0  0
  -11.2553   -1.2275  -23.8326 C   0  0  0  0  0  0  0  0  0  0  0  0
   -8.8910   -2.1926  -24.8575 N   0  3  2  0  0  0  0  0  0  0  0  0
   -9.4990   -4.4743  -26.6046 H   0  0  0  0  0  0  0  0  0  0  0  0
  -13.6732   -2.1997  -23.1273 Cl  0  0  0  0  0  0  0  0  0  0  0  0
   -9.4858   -2.8036  -23.7166 C   0  0  1  0  0  0  0  0  0  0  0  0
   -8.4626   -2.8379  -25.9310 C   0  0  0  0  0  2  0  0  0  0  0  0
  -13.1602    0.1784  -23.9856 N   0  0  0  0  0  0  0  0  0  0  0  0
   -9.7443   -3.8806  -23.6720 H   0  0  0  0  0  0  0  0  0  0  0  0
   -8.1708   -2.4821  -23.2623 C   0  0  0  0  0  0  0  0  0  0  0  0
   -8.1202   -1.8451  -22.4181 H   0  0  0  0  0  0  0  0  0  0  0  0
   -7.7476   -4.5992  -26.7946 H   0  0  0  0  0  0  0  0  0  0  0  0
  -11.1856    0.9491  -24.9592 C   0  0  0  0  0  0  0  0  0  0  0  0
   -8.4713   -4.8344  -25.2092 H   0  0  0  0  0  0  0  0  0  0  0  0
  -10.6628   -2.2218  -23.1252 O   0  0  0  0  0  0  0  0  0  0  0  0
   -9.0901   -0.5391  -25.3216 S   0  0  0  0  0  0  0  0  0  0  0  0
  -10.6044   -0.2993  -24.6468 C   0  0  0  0  0  0  0  0  0  0  0  0
 15 16  1  0  0  0  0
  2 15  1  0  0  0  0
 11 15  1  0  0  0  0
  8 15  1  0  0  0  0
  4 18  1  0  0  0  0
  3  6  1  0  0  0  0
  6 18  2  0  0  0  0
 18 22  1  0  0  0  0
 21 22  1  0  0  0  0
  8 21  1  0  0  0  0
  6 13  1  0  0  0  0
  7 22  2  0  0  0  0
  7 20  1  0  0  0  0
 11 20  1  0  0  0  0
  5  7  1  0  0  0  0
  8 11  1  0  0  0  0
 11 14  1  0  0  0  0
  8 12  1  0  0  0  0
  5 13  2  0  0  0  0
  5 10  1  0  0  0  0
  1 12  1  0  0  0  0
  1 19  1  0  0  0  0
  1 17  1  0  0  0  0
  1  9  1  0  0  0  0
M  CHG  1   8   1
M  END
> <Chemgauss4>
-7.406693

$$$$
