stable:False satoms:18 tatoms:24 sratio:0.75
  -OEChem-08052418103D

 22 24  0     1  0  0  0  0  0999 V2000
    8.2258   -4.9609   24.7224 C   0  0  0  0  0  0  0  0  0  0  0  0
    7.1320   -2.9539   22.4945 H   0  0  0  0  0  0  0  0  0  0  0  0
   12.7481    1.4627   25.4992 H   0  0  0  0  0  0  0  0  0  0  0  0
   10.4107    0.8219   26.0625 H   0  0  0  0  0  0  0  0  0  0  0  0
   12.4760   -1.2421   23.5788 C   0  0  0  0  0  0  0  0  0  0  0  0
   12.2718    0.5929   25.0746 C   0  0  0  0  0  0  0  0  0  0  0  0
   11.0966   -1.4432   23.5975 C   0  0  0  0  0  0  0  0  0  0  0  0
    8.6692   -2.6054   24.1709 N   0  3  2  0  0  0  0  0  0  0  0  0
    9.1534   -5.3324   25.1493 H   0  0  0  0  0  0  0  0  0  0  0  0
   13.5314   -2.2230   22.7297 Cl  0  0  0  0  0  0  0  0  0  0  0  0
    9.3108   -2.8521   22.9233 C   0  0  1  0  0  0  0  0  0  0  0  0
    8.1776   -3.5373   24.9722 C   0  0  0  0  0  2  0  0  0  0  0  0
   13.0132   -0.2117   24.2599 N   0  0  0  0  0  0  0  0  0  0  0  0
    9.5543   -3.8699   22.5583 H   0  0  0  0  0  0  0  0  0  0  0  0
    8.0253   -2.3662   22.5352 C   0  0  0  0  0  0  0  0  0  0  0  0
    8.0270   -1.4985   21.9285 H   0  0  0  0  0  0  0  0  0  0  0  0
    7.3929   -5.4567   25.2161 H   0  0  0  0  0  0  0  0  0  0  0  0
   11.0046    0.2802   25.3390 C   0  0  0  0  0  0  0  0  0  0  0  0
    8.1913   -5.2127   23.6684 H   0  0  0  0  0  0  0  0  0  0  0  0
   10.5248   -2.1521   22.5922 O   0  0  0  0  0  0  0  0  0  0  0  0
    8.8706   -1.1828   25.1326 S   0  0  0  0  0  0  0  0  0  0  0  0
   10.4204   -0.7924   24.6306 C   0  0  0  0  0  0  0  0  0  0  0  0
 15 16  1  0  0  0  0
  2 15  1  0  0  0  0
 11 15  1  0  0  0  0
  8 15  1  0  0  0  0
  4 18  1  0  0  0  0
  3  6  1  0  0  0  0
  6 18  2  0  0  0  0
 18 22  1  0  0  0  0
 21 22  1  0  0  0  0
  8 21  1  0  0  0  0
  6 13  1  0  0  0  0
  7 22  2  0  0  0  0
  7 20  1  0  0  0  0
 11 20  1  0  0  0  0
  5  7  1  0  0  0  0
  8 11  1  0  0  0  0
 11 14  1  0  0  0  0
  8 12  1  0  0  0  0
  5 13  2  0  0  0  0
  5 10  1  0  0  0  0
  1 12  1  0  0  0  0
  1 19  1  0  0  0  0
  1 17  1  0  0  0  0
  1  9  1  0  0  0  0
M  CHG  1   8   1
M  END
> <Chemgauss4>
-6.904541

$$$$
