REMARK  7 active torsions:
REMARK  status: ('A' for Active; 'I' for Inactive)
REMARK    1  A    between atoms: S_2  and  N_5 
REMARK    2  A    between atoms: N_5  and  C_7 
REMARK    3  A    between atoms: C_7  and  C_8 
REMARK    4  A    between atoms: C_8  and  C_9 
REMARK    5  A    between atoms: C_9  and  C_15 
REMARK    6  A    between atoms: C_15  and  C_16 
REMARK       I    between atoms: C_16  and  N_18 
REMARK    7  A    between atoms: N_18  and  C_20 
ROOT
HETATM    1  C   UNL     1      10.355  -1.141  23.269  1.00  0.00     0.068 C 
HETATM    2  C   UNL     1      11.054  -0.106  24.227  1.00  0.00     0.000 C 
HETATM    3  C   UNL     1      12.170   0.238  24.171  1.00  0.00    -0.002 C 
HETATM    4  C   UNL     1      13.072  -0.150  23.487  1.00  0.00    -0.001 C 
HETATM    5  C   UNL     1      12.850  -1.317  22.603  1.00  0.00    -0.002 C 
HETATM    6  C   UNL     1      11.837  -1.690  22.532  1.00  0.00     0.000 C 
ENDROOT
BRANCH   1   7
HETATM    7  C   UNL     1       9.403  -2.019  23.565  1.00  0.00     0.135 C 
BRANCH   7   8
HETATM    8  C   UNL     1       8.928  -2.893  24.133  1.00  0.00    -0.058 C 
BRANCH   8   9
HETATM    9  N   UNL     1       8.133  -3.557  24.670  1.00  0.00    -0.254 N 
ATOM     10  HN  UNL     1       7.284  -3.711  24.125  1.00  0.00     0.188 HD
BRANCH   9  11
HETATM   11  S   UNL     1       8.127  -4.282  26.126  1.00  0.00     0.233 S 
HETATM   12  C   UNL     1       6.667  -4.803  26.360  1.00  0.00     0.186 C 
HETATM   13  O   UNL     1       9.015  -5.439  26.059  1.00  0.00    -0.206 OA
HETATM   14  O   UNL     1       8.555  -3.390  27.151  1.00  0.00    -0.206 OA
ENDBRANCH   9  11
ENDBRANCH   8   9
ENDBRANCH   7   8
ENDBRANCH   1   7
BRANCH   1  15
HETATM   15  C   UNL     1       9.690  -0.641  22.404  1.00  0.00    -0.064 C 
BRANCH  15  16
HETATM   16  C   UNL     1       9.052   0.046  21.418  1.00  0.00     0.290 C 
HETATM   17  O   UNL     1       9.559   0.976  20.978  1.00  0.00    -0.259 OA
HETATM   18  N   UNL     1       7.881  -0.516  21.137  1.00  0.00    -0.315 N 
ATOM     19  HN  UNL     1       7.555  -1.317  21.678  1.00  0.00     0.170 HD
BRANCH  18  20
HETATM   20  C   UNL     1       7.177  -0.057  20.203  1.00  0.00     0.057 A 
HETATM   21  C   UNL     1       7.223   0.020  18.877  1.00  0.00     0.117 A 
HETATM   22  N   UNL     1       6.831   0.315  17.784  1.00  0.00    -0.373 N 
HETATM   23  C   UNL     1       5.629   0.909  18.284  1.00  0.00     0.088 A 
ATOM     24  HN  UNL     1       7.212   0.189  16.846  1.00  0.00     0.164 HD
HETATM   25  C   UNL     1       5.309   0.999  19.394  1.00  0.00     0.026 A 
HETATM   26  C   UNL     1       5.816   0.573  20.562  1.00  0.00    -0.033 A 
HETATM   27  C   UNL     1       5.252   0.634  21.903  1.00  0.00     0.050 C 
ENDBRANCH  18  20
ENDBRANCH  15  16
ENDBRANCH   1  15
TORSDOF 7
