MODEL 1
REMARK VINA RESULT:    -7.188      0.000      0.000
REMARK INTER + INTRA:         -11.365
REMARK INTER:                 -10.129
REMARK INTRA:                  -1.236
REMARK UNBOUND:                -1.236
REMARK  7 active torsions:
REMARK  status: ('A' for Active; 'I' for Inactive)
REMARK    1  A    between atoms: S_2  and  N_5 
REMARK    2  A    between atoms: N_5  and  C_7 
REMARK    3  A    between atoms: C_7  and  C_8 
REMARK    4  A    between atoms: C_8  and  C_9 
REMARK    5  A    between atoms: C_9  and  C_15 
REMARK    6  A    between atoms: C_15  and  C_16 
REMARK       I    between atoms: C_16  and  N_18 
REMARK    7  A    between atoms: N_18  and  C_20 
ROOT
HETATM    1  C   UNL     1       9.377  -1.634  23.253  1.00  0.00     0.068 C 
HETATM    2  C   UNL     1       9.493  -0.698  24.512  1.00  0.00     0.000 C 
HETATM    3  C   UNL     1      10.452  -0.125  24.857  1.00  0.00    -0.002 C 
HETATM    4  C   UNL     1      11.575  -0.166  24.446  1.00  0.00    -0.001 C 
HETATM    5  C   UNL     1      11.915  -1.145  23.388  1.00  0.00    -0.002 C 
HETATM    6  C   UNL     1      11.094  -1.698  22.952  1.00  0.00     0.000 C 
ENDROOT
BRANCH   1   7
HETATM    7  C   UNL     1       8.644  -2.733  23.113  1.00  0.00     0.135 C 
BRANCH   7   8
HETATM    8  C   UNL     1       7.815  -3.477  23.380  1.00  0.00    -0.058 C 
BRANCH   8   9
HETATM    9  N   UNL     1       6.836  -4.109  23.312  1.00  0.00    -0.254 N 
ATOM     10  HN  UNL     1       6.533  -4.503  24.203  1.00  0.00     0.188 HD
BRANCH   9  11
HETATM   11  S   UNL     1       5.866  -4.477  22.059  1.00  0.00     0.233 S 
HETATM   12  C   UNL     1       6.511  -5.714  21.344  1.00  0.00     0.186 C 
HETATM   13  O   UNL     1       4.572  -4.889  22.595  1.00  0.00    -0.206 OA
HETATM   14  O   UNL     1       5.707  -3.366  21.182  1.00  0.00    -0.206 OA
ENDBRANCH   9  11
ENDBRANCH   8   9
ENDBRANCH   7   8
ENDBRANCH   1   7
BRANCH   1  15
HETATM   15  C   UNL     1       8.867  -1.116  22.298  1.00  0.00    -0.064 C 
BRANCH  15  16
HETATM   16  C   UNL     1       8.398  -0.405  21.237  1.00  0.00     0.290 C 
HETATM   17  O   UNL     1       9.121   0.286  20.675  1.00  0.00    -0.259 OA
HETATM   18  N   UNL     1       7.106  -0.648  21.043  1.00  0.00    -0.315 N 
ATOM     19  HN  UNL     1       6.597  -1.254  21.687  1.00  0.00     0.170 HD
BRANCH  18  20
HETATM   20  C   UNL     1       6.514  -0.129  20.064  1.00  0.00     0.057 A 
HETATM   21  C   UNL     1       6.172  -0.466  18.825  1.00  0.00     0.117 A 
HETATM   22  N   UNL     1       5.682  -0.306  17.743  1.00  0.00    -0.373 N 
HETATM   23  C   UNL     1       5.231   1.017  18.051  1.00  0.00     0.088 A 
ATOM     24  HN  UNL     1       5.612  -0.893  16.912  1.00  0.00     0.164 HD
HETATM   25  C   UNL     1       5.383   1.588  19.048  1.00  0.00     0.026 A 
HETATM   26  C   UNL     1       5.914   1.280  20.242  1.00  0.00    -0.033 A 
HETATM   27  C   UNL     1       5.935   2.046  21.481  1.00  0.00     0.050 C 
ENDBRANCH  18  20
ENDBRANCH  15  16
ENDBRANCH   1  15
TORSDOF 7
ENDMDL
MODEL 2
REMARK VINA RESULT:    -6.835      2.611      5.915
REMARK INTER + INTRA:         -10.868
REMARK INTER:                  -9.871
REMARK INTRA:                  -0.997
REMARK UNBOUND:                -1.236
REMARK  7 active torsions:
REMARK  status: ('A' for Active; 'I' for Inactive)
REMARK    1  A    between atoms: S_2  and  N_5 
REMARK    2  A    between atoms: N_5  and  C_7 
REMARK    3  A    between atoms: C_7  and  C_8 
REMARK    4  A    between atoms: C_8  and  C_9 
REMARK    5  A    between atoms: C_9  and  C_15 
REMARK    6  A    between atoms: C_15  and  C_16 
REMARK       I    between atoms: C_16  and  N_18 
REMARK    7  A    between atoms: N_18  and  C_20 
ROOT
HETATM    1  C   UNL     1      10.269  -0.842  23.279  1.00  0.00     0.068 C 
HETATM    2  C   UNL     1      11.584  -1.568  22.810  1.00  0.00     0.000 C 
HETATM    3  C   UNL     1      12.657  -1.396  23.243  1.00  0.00    -0.002 C 
HETATM    4  C   UNL     1      13.057  -0.596  24.037  1.00  0.00    -0.001 C 
HETATM    5  C   UNL     1      12.130   0.445  24.536  1.00  0.00    -0.002 C 
HETATM    6  C   UNL     1      11.092   0.355  24.243  1.00  0.00     0.000 C 
ENDROOT
BRANCH   1   7
HETATM    7  C   UNL     1       9.221  -0.487  22.543  1.00  0.00     0.135 C 
BRANCH   7   8
HETATM    8  C   UNL     1       8.481  -0.567  21.673  1.00  0.00    -0.058 C 
BRANCH   8   9
HETATM    9  N   UNL     1       7.519  -0.822  21.063  1.00  0.00    -0.254 N 
ATOM     10  HN  UNL     1       7.115  -1.733  21.286  1.00  0.00     0.188 HD
BRANCH   9  11
HETATM   11  S   UNL     1       6.703   0.004  19.925  1.00  0.00     0.233 S 
HETATM   12  C   UNL     1       6.194   1.321  20.606  1.00  0.00     0.186 C 
HETATM   13  O   UNL     1       7.645   0.374  18.872  1.00  0.00    -0.206 OA
HETATM   14  O   UNL     1       5.639  -0.773  19.383  1.00  0.00    -0.206 OA
ENDBRANCH   9  11
ENDBRANCH   8   9
ENDBRANCH   7   8
ENDBRANCH   1   7
BRANCH   1  15
HETATM   15  C   UNL     1       9.586  -1.491  24.023  1.00  0.00    -0.064 C 
BRANCH  15  16
HETATM   16  C   UNL     1       8.939  -2.218  24.974  1.00  0.00     0.290 C 
HETATM   17  O   UNL     1       8.723  -1.728  25.988  1.00  0.00    -0.259 OA
HETATM   18  N   UNL     1       8.671  -3.440  24.528  1.00  0.00    -0.315 N 
ATOM     19  HN  UNL     1       8.995  -3.731  23.606  1.00  0.00     0.170 HD
BRANCH  18  20
HETATM   20  C   UNL     1       8.016  -4.237  25.246  1.00  0.00     0.057 A 
HETATM   21  C   UNL     1       8.235  -5.043  26.280  1.00  0.00     0.117 A 
HETATM   22  N   UNL     1       7.944  -5.838  27.128  1.00  0.00    -0.373 N 
HETATM   23  C   UNL     1       6.568  -5.877  26.738  1.00  0.00     0.088 A 
ATOM     24  HN  UNL     1       8.479  -6.309  27.858  1.00  0.00     0.164 HD
HETATM   25  C   UNL     1       6.076  -5.289  25.869  1.00  0.00     0.026 A 
HETATM   26  C   UNL     1       6.500  -4.362  24.995  1.00  0.00    -0.033 A 
HETATM   27  C   UNL     1       5.749  -3.587  24.018  1.00  0.00     0.050 C 
ENDBRANCH  18  20
ENDBRANCH  15  16
ENDBRANCH   1  15
TORSDOF 7
ENDMDL
MODEL 3
REMARK VINA RESULT:    -6.651      2.800      6.072
REMARK INTER + INTRA:         -10.608
REMARK INTER:                  -9.914
REMARK INTRA:                  -0.694
REMARK UNBOUND:                -1.236
REMARK  7 active torsions:
REMARK  status: ('A' for Active; 'I' for Inactive)
REMARK    1  A    between atoms: S_2  and  N_5 
REMARK    2  A    between atoms: N_5  and  C_7 
REMARK    3  A    between atoms: C_7  and  C_8 
REMARK    4  A    between atoms: C_8  and  C_9 
REMARK    5  A    between atoms: C_9  and  C_15 
REMARK    6  A    between atoms: C_15  and  C_16 
REMARK       I    between atoms: C_16  and  N_18 
REMARK    7  A    between atoms: N_18  and  C_20 
ROOT
HETATM    1  C   UNL     1       6.519  -3.384  22.464  1.00  0.00     0.068 C 
HETATM    2  C   UNL     1       5.423  -3.886  23.477  1.00  0.00     0.000 C 
HETATM    3  C   UNL     1       5.202  -5.001  23.754  1.00  0.00    -0.002 C 
HETATM    4  C   UNL     1       5.638  -6.018  23.299  1.00  0.00    -0.001 C 
HETATM    5  C   UNL     1       6.543  -5.951  22.129  1.00  0.00    -0.002 C 
HETATM    6  C   UNL     1       6.861  -4.966  21.815  1.00  0.00     0.000 C 
ENDROOT
BRANCH   1   7
HETATM    7  C   UNL     1       6.464  -2.336  21.650  1.00  0.00     0.135 C 
BRANCH   7   8
HETATM    8  C   UNL     1       5.989  -1.641  20.873  1.00  0.00    -0.058 C 
BRANCH   8   9
HETATM    9  N   UNL     1       5.426  -1.274  19.919  1.00  0.00    -0.254 N 
ATOM     10  HN  UNL     1       4.632  -1.859  19.656  1.00  0.00     0.188 HD
BRANCH   9  11
HETATM   11  S   UNL     1       5.671  -0.005  18.932  1.00  0.00     0.233 S 
HETATM   12  C   UNL     1       7.143   0.476  19.180  1.00  0.00     0.186 C 
HETATM   13  O   UNL     1       5.576  -0.478  17.554  1.00  0.00    -0.206 OA
HETATM   14  O   UNL     1       4.717   1.026  19.167  1.00  0.00    -0.206 OA
ENDBRANCH   9  11
ENDBRANCH   8   9
ENDBRANCH   7   8
ENDBRANCH   1   7
BRANCH   1  15
HETATM   15  C   UNL     1       7.525  -2.986  22.984  1.00  0.00    -0.064 C 
BRANCH  15  16
HETATM   16  C   UNL     1       8.714  -2.695  23.577  1.00  0.00     0.290 C 
HETATM   17  O   UNL     1       9.013  -3.269  24.524  1.00  0.00    -0.259 OA
HETATM   18  N   UNL     1       9.345  -1.731  22.915  1.00  0.00    -0.315 N 
ATOM     19  HN  UNL     1       8.898  -1.283  22.114  1.00  0.00     0.170 HD
BRANCH  18  20
HETATM   20  C   UNL     1      10.493  -1.373  23.277  1.00  0.00     0.057 A 
HETATM   21  C   UNL     1      11.756  -1.695  23.018  1.00  0.00     0.117 A 
HETATM   22  N   UNL     1      12.948  -1.617  23.118  1.00  0.00    -0.373 N 
HETATM   23  C   UNL     1      12.882  -0.548  24.067  1.00  0.00     0.088 A 
ATOM     24  HN  UNL     1      13.721  -2.124  22.687  1.00  0.00     0.164 HD
HETATM   25  C   UNL     1      11.924  -0.055  24.492  1.00  0.00     0.026 A 
HETATM   26  C   UNL     1      10.608  -0.191  24.261  1.00  0.00    -0.033 A 
HETATM   27  C   UNL     1       9.485   0.584  24.770  1.00  0.00     0.050 C 
ENDBRANCH  18  20
ENDBRANCH  15  16
ENDBRANCH   1  15
TORSDOF 7
ENDMDL
MODEL 4
REMARK VINA RESULT:    -6.624      4.105      6.084
REMARK INTER + INTRA:         -10.571
REMARK INTER:                  -9.820
REMARK INTRA:                  -0.750
REMARK UNBOUND:                -1.236
REMARK  7 active torsions:
REMARK  status: ('A' for Active; 'I' for Inactive)
REMARK    1  A    between atoms: S_2  and  N_5 
REMARK    2  A    between atoms: N_5  and  C_7 
REMARK    3  A    between atoms: C_7  and  C_8 
REMARK    4  A    between atoms: C_8  and  C_9 
REMARK    5  A    between atoms: C_9  and  C_15 
REMARK    6  A    between atoms: C_15  and  C_16 
REMARK       I    between atoms: C_16  and  N_18 
REMARK    7  A    between atoms: N_18  and  C_20 
ROOT
HETATM    1  C   UNL     1       7.624  -4.707  23.927  1.00  0.00     0.068 C 
HETATM    2  C   UNL     1       7.587  -5.648  22.666  1.00  0.00     0.000 C 
HETATM    3  C   UNL     1       6.703  -5.746  21.906  1.00  0.00    -0.002 C 
HETATM    4  C   UNL     1       5.603  -5.276  21.925  1.00  0.00    -0.001 C 
HETATM    5  C   UNL     1       5.175  -4.504  23.114  1.00  0.00    -0.002 C 
HETATM    6  C   UNL     1       5.929  -4.302  23.863  1.00  0.00     0.000 C 
ENDROOT
BRANCH   1   7
HETATM    7  C   UNL     1       8.203  -4.932  25.101  1.00  0.00     0.135 C 
BRANCH   7   8
HETATM    8  C   UNL     1       8.285  -5.359  26.161  1.00  0.00    -0.058 C 
BRANCH   8   9
HETATM    9  N   UNL     1       7.983  -5.760  27.214  1.00  0.00    -0.254 N 
ATOM     10  HN  UNL     1       8.774  -5.935  27.834  1.00  0.00     0.188 HD
BRANCH   9  11
HETATM   11  S   UNL     1       6.535  -6.094  27.876  1.00  0.00     0.233 S 
HETATM   12  C   UNL     1       5.881  -4.715  28.237  1.00  0.00     0.186 C 
HETATM   13  O   UNL     1       5.709  -6.735  26.858  1.00  0.00    -0.206 OA
HETATM   14  O   UNL     1       6.668  -6.944  29.011  1.00  0.00    -0.206 OA
ENDBRANCH   9  11
ENDBRANCH   8   9
ENDBRANCH   7   8
ENDBRANCH   1   7
BRANCH   1  15
HETATM   15  C   UNL     1       8.240  -3.690  23.765  1.00  0.00    -0.064 C 
BRANCH  15  16
HETATM   16  C   UNL     1       8.980  -2.598  23.431  1.00  0.00     0.290 C 
HETATM   17  O   UNL     1       9.027  -2.279  22.331  1.00  0.00    -0.259 OA
HETATM   18  N   UNL     1       9.558  -2.076  24.509  1.00  0.00    -0.315 N 
ATOM     19  HN  UNL     1       9.456  -2.532  25.415  1.00  0.00     0.170 HD
BRANCH  18  20
HETATM   20  C   UNL     1      10.230  -1.020  24.406  1.00  0.00     0.057 A 
HETATM   21  C   UNL     1      11.460  -0.662  24.052  1.00  0.00     0.117 A 
HETATM   22  N   UNL     1      12.360   0.100  23.841  1.00  0.00    -0.373 N 
HETATM   23  C   UNL     1      11.579   1.249  24.186  1.00  0.00     0.088 A 
ATOM     24  HN  UNL     1      13.324  -0.023  23.531  1.00  0.00     0.164 HD
HETATM   25  C   UNL     1      10.475   1.256  24.539  1.00  0.00     0.026 A 
HETATM   26  C   UNL     1       9.524   0.321  24.690  1.00  0.00    -0.033 A 
HETATM   27  C   UNL     1       8.113   0.468  25.021  1.00  0.00     0.050 C 
ENDBRANCH  18  20
ENDBRANCH  15  16
ENDBRANCH   1  15
TORSDOF 7
ENDMDL
MODEL 5
REMARK VINA RESULT:    -6.388      2.704      5.945
REMARK INTER + INTRA:         -10.237
REMARK INTER:                  -9.153
REMARK INTRA:                  -1.085
REMARK UNBOUND:                -1.236
REMARK  7 active torsions:
REMARK  status: ('A' for Active; 'I' for Inactive)
REMARK    1  A    between atoms: S_2  and  N_5 
REMARK    2  A    between atoms: N_5  and  C_7 
REMARK    3  A    between atoms: C_7  and  C_8 
REMARK    4  A    between atoms: C_8  and  C_9 
REMARK    5  A    between atoms: C_9  and  C_15 
REMARK    6  A    between atoms: C_15  and  C_16 
REMARK       I    between atoms: C_16  and  N_18 
REMARK    7  A    between atoms: N_18  and  C_20 
ROOT
HETATM    1  C   UNL     1       7.692   0.269  20.835  1.00  0.00     0.068 C 
HETATM    2  C   UNL     1       6.518   1.253  21.197  1.00  0.00     0.000 C 
HETATM    3  C   UNL     1       5.638   1.563  20.492  1.00  0.00    -0.002 C 
HETATM    4  C   UNL     1       5.445   1.325  19.336  1.00  0.00    -0.001 C 
HETATM    5  C   UNL     1       6.487   0.604  18.569  1.00  0.00    -0.002 C 
HETATM    6  C   UNL     1       7.328   0.220  19.130  1.00  0.00     0.000 C 
ENDROOT
BRANCH   1   7
HETATM    7  C   UNL     1       8.957   0.319  21.236  1.00  0.00     0.135 C 
BRANCH   7   8
HETATM    8  C   UNL     1       9.821   0.592  21.938  1.00  0.00    -0.058 C 
BRANCH   8   9
HETATM    9  N   UNL     1      10.758   0.489  22.625  1.00  0.00    -0.254 N 
ATOM     10  HN  UNL     1      11.296   1.350  22.726  1.00  0.00     0.188 HD
BRANCH   9  11
HETATM   11  S   UNL     1      11.367  -0.773  23.450  1.00  0.00     0.233 S 
HETATM   12  C   UNL     1      12.680  -0.265  24.139  1.00  0.00     0.186 C 
HETATM   13  O   UNL     1      10.415  -1.131  24.498  1.00  0.00    -0.206 OA
HETATM   14  O   UNL     1      11.601  -1.888  22.594  1.00  0.00    -0.206 OA
ENDBRANCH   9  11
ENDBRANCH   8   9
ENDBRANCH   7   8
ENDBRANCH   1   7
BRANCH   1  15
HETATM   15  C   UNL     1       7.551  -0.844  21.262  1.00  0.00    -0.064 C 
BRANCH  15  16
HETATM   16  C   UNL     1       7.349  -2.033  21.891  1.00  0.00     0.290 C 
HETATM   17  O   UNL     1       8.259  -2.607  22.290  1.00  0.00    -0.259 OA
HETATM   18  N   UNL     1       6.055  -2.335  21.918  1.00  0.00    -0.315 N 
ATOM     19  HN  UNL     1       5.379  -1.730  21.453  1.00  0.00     0.170 HD
BRANCH  18  20
HETATM   20  C   UNL     1       5.668  -3.369  22.518  1.00  0.00     0.057 A 
HETATM   21  C   UNL     1       5.531  -4.666  22.264  1.00  0.00     0.117 A 
HETATM   22  N   UNL     1       5.253  -5.806  22.508  1.00  0.00    -0.373 N 
HETATM   23  C   UNL     1       4.866  -5.511  23.854  1.00  0.00     0.088 A 
ATOM     24  HN  UNL     1       5.282  -6.666  21.961  1.00  0.00     0.164 HD
HETATM   25  C   UNL     1       4.871  -4.471  24.365  1.00  0.00     0.026 A 
HETATM   26  C   UNL     1       5.264  -3.240  24.001  1.00  0.00    -0.033 A 
HETATM   27  C   UNL     1       5.343  -2.014  24.783  1.00  0.00     0.050 C 
ENDBRANCH  18  20
ENDBRANCH  15  16
ENDBRANCH   1  15
TORSDOF 7
ENDMDL
MODEL 6
REMARK VINA RESULT:    -6.111      2.876      6.608
REMARK INTER + INTRA:          -9.847
REMARK INTER:                  -8.725
REMARK INTRA:                  -1.122
REMARK UNBOUND:                -1.236
REMARK  7 active torsions:
REMARK  status: ('A' for Active; 'I' for Inactive)
REMARK    1  A    between atoms: S_2  and  N_5 
REMARK    2  A    between atoms: N_5  and  C_7 
REMARK    3  A    between atoms: C_7  and  C_8 
REMARK    4  A    between atoms: C_8  and  C_9 
REMARK    5  A    between atoms: C_9  and  C_15 
REMARK    6  A    between atoms: C_15  and  C_16 
REMARK       I    between atoms: C_16  and  N_18 
REMARK    7  A    between atoms: N_18  and  C_20 
ROOT
HETATM    1  C   UNL     1       7.610   0.610  21.324  1.00  0.00     0.068 C 
HETATM    2  C   UNL     1       6.618   1.832  21.326  1.00  0.00     0.000 C 
HETATM    3  C   UNL     1       5.695   1.968  20.621  1.00  0.00    -0.002 C 
HETATM    4  C   UNL     1       5.325   1.320  19.686  1.00  0.00    -0.001 C 
HETATM    5  C   UNL     1       6.165   0.194  19.218  1.00  0.00    -0.002 C 
HETATM    6  C   UNL     1       7.023  -0.061  19.826  1.00  0.00     0.000 C 
ENDROOT
BRANCH   1   7
HETATM    7  C   UNL     1       8.915   0.613  21.577  1.00  0.00     0.135 C 
BRANCH   7   8
HETATM    8  C   UNL     1       9.882   0.977  22.071  1.00  0.00    -0.058 C 
BRANCH   8   9
HETATM    9  N   UNL     1      10.852   0.989  22.720  1.00  0.00    -0.254 N 
ATOM     10  HN  UNL     1      11.442   1.808  22.569  1.00  0.00     0.188 HD
BRANCH   9  11
HETATM   11  S   UNL     1      11.437  -0.057  23.819  1.00  0.00     0.233 S 
HETATM   12  C   UNL     1      11.800  -1.368  23.040  1.00  0.00     0.186 C 
HETATM   13  O   UNL     1      12.671   0.502  24.363  1.00  0.00    -0.206 OA
HETATM   14  O   UNL     1      10.497  -0.290  24.864  1.00  0.00    -0.206 OA
ENDBRANCH   9  11
ENDBRANCH   8   9
ENDBRANCH   7   8
ENDBRANCH   1   7
BRANCH   1  15
HETATM   15  C   UNL     1       7.398  -0.198  22.186  1.00  0.00    -0.064 C 
BRANCH  15  16
HETATM   16  C   UNL     1       7.282  -1.042  23.247  1.00  0.00     0.290 C 
HETATM   17  O   UNL     1       6.449  -0.852  24.012  1.00  0.00    -0.259 OA
HETATM   18  N   UNL     1       8.220  -1.982  23.203  1.00  0.00    -0.315 N 
ATOM     19  HN  UNL     1       8.929  -1.964  22.471  1.00  0.00     0.170 HD
BRANCH  18  20
HETATM   20  C   UNL     1       8.230  -2.894  24.069  1.00  0.00     0.057 A 
HETATM   21  C   UNL     1       8.508  -3.026  25.361  1.00  0.00     0.117 A 
HETATM   22  N   UNL     1       8.626  -3.609  26.401  1.00  0.00    -0.373 N 
HETATM   23  C   UNL     1       8.200  -4.857  25.845  1.00  0.00     0.088 A 
ATOM     24  HN  UNL     1       8.919  -3.322  27.335  1.00  0.00     0.164 HD
HETATM   25  C   UNL     1       7.895  -5.059  24.746  1.00  0.00     0.026 A 
HETATM   26  C   UNL     1       7.746  -4.297  23.650  1.00  0.00    -0.033 A 
HETATM   27  C   UNL     1       7.226  -4.643  22.335  1.00  0.00     0.050 C 
ENDBRANCH  18  20
ENDBRANCH  15  16
ENDBRANCH   1  15
TORSDOF 7
ENDMDL
MODEL 7
REMARK VINA RESULT:    -6.004      3.973      6.747
REMARK INTER + INTRA:          -9.696
REMARK INTER:                  -8.758
REMARK INTRA:                  -0.938
REMARK UNBOUND:                -1.236
REMARK  7 active torsions:
REMARK  status: ('A' for Active; 'I' for Inactive)
REMARK    1  A    between atoms: S_2  and  N_5 
REMARK    2  A    between atoms: N_5  and  C_7 
REMARK    3  A    between atoms: C_7  and  C_8 
REMARK    4  A    between atoms: C_8  and  C_9 
REMARK    5  A    between atoms: C_9  and  C_15 
REMARK    6  A    between atoms: C_15  and  C_16 
REMARK       I    between atoms: C_16  and  N_18 
REMARK    7  A    between atoms: N_18  and  C_20 
ROOT
HETATM    1  C   UNL     1      10.125  -0.662  23.747  1.00  0.00     0.068 C 
HETATM    2  C   UNL     1      11.112  -1.542  22.894  1.00  0.00     0.000 C 
HETATM    3  C   UNL     1      12.269  -1.616  23.040  1.00  0.00    -0.002 C 
HETATM    4  C   UNL     1      13.005  -1.005  23.760  1.00  0.00    -0.001 C 
HETATM    5  C   UNL     1      12.456   0.112  24.563  1.00  0.00    -0.002 C 
HETATM    6  C   UNL     1      11.382   0.242  24.548  1.00  0.00     0.000 C 
ENDROOT
BRANCH   1   7
HETATM    7  C   UNL     1       9.023  -0.040  23.343  1.00  0.00     0.135 C 
BRANCH   7   8
HETATM    8  C   UNL     1       8.390   0.857  23.015  1.00  0.00    -0.058 C 
BRANCH   8   9
HETATM    9  N   UNL     1       7.974   1.944  22.941  1.00  0.00    -0.254 N 
ATOM     10  HN  UNL     1       7.148   2.034  22.348  1.00  0.00     0.188 HD
BRANCH   9  11
HETATM   11  S   UNL     1       8.467   3.345  23.606  1.00  0.00     0.233 S 
HETATM   12  C   UNL     1       8.212   3.222  25.147  1.00  0.00     0.186 C 
HETATM   13  O   UNL     1       9.907   3.464  23.393  1.00  0.00    -0.206 OA
HETATM   14  O   UNL     1       7.790   4.458  23.031  1.00  0.00    -0.206 OA
ENDBRANCH   9  11
ENDBRANCH   8   9
ENDBRANCH   7   8
ENDBRANCH   1   7
BRANCH   1  15
HETATM   15  C   UNL     1       9.528  -1.269  24.592  1.00  0.00    -0.064 C 
BRANCH  15  16
HETATM   16  C   UNL     1       8.862  -2.090  25.449  1.00  0.00     0.290 C 
HETATM   17  O   UNL     1       8.593  -1.696  26.492  1.00  0.00    -0.259 OA
HETATM   18  N   UNL     1       8.643  -3.275  24.889  1.00  0.00    -0.315 N 
ATOM     19  HN  UNL     1       9.011  -3.477  23.960  1.00  0.00     0.170 HD
BRANCH  18  20
HETATM   20  C   UNL     1       7.980  -4.145  25.508  1.00  0.00     0.057 A 
HETATM   21  C   UNL     1       8.161  -4.992  26.516  1.00  0.00     0.117 A 
HETATM   22  N   UNL     1       7.849  -5.846  27.297  1.00  0.00    -0.373 N 
HETATM   23  C   UNL     1       6.516  -5.943  26.786  1.00  0.00     0.088 A 
ATOM     24  HN  UNL     1       8.348  -6.325  28.047  1.00  0.00     0.164 HD
HETATM   25  C   UNL     1       6.063  -5.338  25.907  1.00  0.00     0.026 A 
HETATM   26  C   UNL     1       6.501  -4.343  25.120  1.00  0.00    -0.033 A 
HETATM   27  C   UNL     1       5.789  -3.561  24.119  1.00  0.00     0.050 C 
ENDBRANCH  18  20
ENDBRANCH  15  16
ENDBRANCH   1  15
TORSDOF 7
ENDMDL
MODEL 8
REMARK VINA RESULT:    -5.971     14.918     16.316
REMARK INTER + INTRA:          -9.650
REMARK INTER:                  -8.702
REMARK INTRA:                  -0.948
REMARK UNBOUND:                -1.236
REMARK  7 active torsions:
REMARK  status: ('A' for Active; 'I' for Inactive)
REMARK    1  A    between atoms: S_2  and  N_5 
REMARK    2  A    between atoms: N_5  and  C_7 
REMARK    3  A    between atoms: C_7  and  C_8 
REMARK    4  A    between atoms: C_8  and  C_9 
REMARK    5  A    between atoms: C_9  and  C_15 
REMARK    6  A    between atoms: C_15  and  C_16 
REMARK       I    between atoms: C_16  and  N_18 
REMARK    7  A    between atoms: N_18  and  C_20 
ROOT
HETATM    1  C   UNL     1      23.148  -1.920  23.827  1.00  0.00     0.068 C 
HETATM    2  C   UNL     1      21.621  -1.626  24.068  1.00  0.00     0.000 C 
HETATM    3  C   UNL     1      21.175  -0.660  24.552  1.00  0.00    -0.002 C 
HETATM    4  C   UNL     1      21.715   0.274  25.069  1.00  0.00    -0.001 C 
HETATM    5  C   UNL     1      23.184   0.241  25.251  1.00  0.00    -0.002 C 
HETATM    6  C   UNL     1      23.714  -0.584  24.794  1.00  0.00     0.000 C 
ENDROOT
BRANCH   1   7
HETATM    7  C   UNL     1      23.777  -3.088  23.886  1.00  0.00     0.135 C 
BRANCH   7   8
HETATM    8  C   UNL     1      23.860  -4.226  23.989  1.00  0.00    -0.058 C 
BRANCH   8   9
HETATM    9  N   UNL     1      24.318  -5.298  24.042  1.00  0.00    -0.254 N 
ATOM     10  HN  UNL     1      24.806  -5.584  23.193  1.00  0.00     0.188 HD
BRANCH   9  11
HETATM   11  S   UNL     1      24.322  -6.421  25.219  1.00  0.00     0.233 S 
HETATM   12  C   UNL     1      25.793  -6.500  25.756  1.00  0.00     0.186 C 
HETATM   13  O   UNL     1      23.469  -5.943  26.303  1.00  0.00    -0.206 OA
HETATM   14  O   UNL     1      23.852  -7.677  24.738  1.00  0.00    -0.206 OA
ENDBRANCH   9  11
ENDBRANCH   8   9
ENDBRANCH   7   8
ENDBRANCH   1   7
BRANCH   1  15
HETATM   15  C   UNL     1      23.516  -1.726  22.701  1.00  0.00    -0.064 C 
BRANCH  15  16
HETATM   16  C   UNL     1      23.865  -1.354  21.439  1.00  0.00     0.290 C 
HETATM   17  O   UNL     1      24.805  -0.714  21.295  1.00  0.00    -0.259 OA
HETATM   18  N   UNL     1      22.991  -1.821  20.554  1.00  0.00    -0.315 N 
ATOM     19  HN  UNL     1      22.165  -2.330  20.870  1.00  0.00     0.170 HD
BRANCH  18  20
HETATM   20  C   UNL     1      23.185  -1.634  19.327  1.00  0.00     0.057 A 
HETATM   21  C   UNL     1      22.934  -0.696  18.419  1.00  0.00     0.117 A 
HETATM   22  N   UNL     1      22.947  -0.197  17.330  1.00  0.00    -0.373 N 
HETATM   23  C   UNL     1      23.655  -1.293  16.743  1.00  0.00     0.088 A 
ATOM     24  HN  UNL     1      22.588   0.683  16.959  1.00  0.00     0.164 HD
HETATM   25  C   UNL     1      24.007  -2.259  17.279  1.00  0.00     0.026 A 
HETATM   26  C   UNL     1      23.984  -2.698  18.548  1.00  0.00    -0.033 A 
HETATM   27  C   UNL     1      24.580  -3.890  19.134  1.00  0.00     0.050 C 
ENDBRANCH  18  20
ENDBRANCH  15  16
ENDBRANCH   1  15
TORSDOF 7
ENDMDL
MODEL 9
REMARK VINA RESULT:    -5.963      2.861      5.191
REMARK INTER + INTRA:          -9.639
REMARK INTER:                  -8.297
REMARK INTRA:                  -1.342
REMARK UNBOUND:                -1.236
REMARK  7 active torsions:
REMARK  status: ('A' for Active; 'I' for Inactive)
REMARK    1  A    between atoms: S_2  and  N_5 
REMARK    2  A    between atoms: N_5  and  C_7 
REMARK    3  A    between atoms: C_7  and  C_8 
REMARK    4  A    between atoms: C_8  and  C_9 
REMARK    5  A    between atoms: C_9  and  C_15 
REMARK    6  A    between atoms: C_15  and  C_16 
REMARK       I    between atoms: C_16  and  N_18 
REMARK    7  A    between atoms: N_18  and  C_20 
ROOT
HETATM    1  C   UNL     1       6.576  -2.802  22.859  1.00  0.00     0.068 C 
HETATM    2  C   UNL     1       5.632  -2.770  24.118  1.00  0.00     0.000 C 
HETATM    3  C   UNL     1       5.656  -3.521  25.014  1.00  0.00    -0.002 C 
HETATM    4  C   UNL     1       6.286  -4.526  25.173  1.00  0.00    -0.001 C 
HETATM    5  C   UNL     1       7.131  -5.024  24.064  1.00  0.00    -0.002 C 
HETATM    6  C   UNL     1       7.229  -4.383  23.198  1.00  0.00     0.000 C 
ENDROOT
BRANCH   1   7
HETATM    7  C   UNL     1       6.285  -2.465  21.608  1.00  0.00     0.135 C 
BRANCH   7   8
HETATM    8  C   UNL     1       5.990  -1.755  20.758  1.00  0.00    -0.058 C 
BRANCH   8   9
HETATM    9  N   UNL     1       5.605  -0.807  20.197  1.00  0.00    -0.254 N 
ATOM     10  HN  UNL     1       4.599  -0.809  20.022  1.00  0.00     0.188 HD
BRANCH   9  11
HETATM   11  S   UNL     1       6.372   0.515  19.642  1.00  0.00     0.233 S 
HETATM   12  C   UNL     1       5.883   0.730  18.168  1.00  0.00     0.186 C 
HETATM   13  O   UNL     1       5.934   1.659  20.436  1.00  0.00    -0.206 OA
HETATM   14  O   UNL     1       7.787   0.367  19.728  1.00  0.00    -0.206 OA
ENDBRANCH   9  11
ENDBRANCH   8   9
ENDBRANCH   7   8
ENDBRANCH   1   7
BRANCH   1  15
HETATM   15  C   UNL     1       7.487  -2.021  22.906  1.00  0.00    -0.064 C 
BRANCH  15  16
HETATM   16  C   UNL     1       8.525  -1.168  23.124  1.00  0.00     0.290 C 
HETATM   17  O   UNL     1       9.538  -1.603  23.438  1.00  0.00    -0.259 OA
HETATM   18  N   UNL     1       8.145   0.090  22.931  1.00  0.00    -0.315 N 
ATOM     19  HN  UNL     1       7.172   0.303  22.709  1.00  0.00     0.170 HD
BRANCH  18  20
HETATM   20  C   UNL     1       8.989   1.017  23.021  1.00  0.00     0.057 A 
HETATM   21  C   UNL     1       9.900   1.602  22.252  1.00  0.00     0.117 A 
HETATM   22  N   UNL     1      10.766   2.386  21.984  1.00  0.00    -0.373 N 
HETATM   23  C   UNL     1      10.725   3.000  23.276  1.00  0.00     0.088 A 
ATOM     24  HN  UNL     1      11.323   2.554  21.146  1.00  0.00     0.164 HD
HETATM   25  C   UNL     1      10.039   2.707  24.162  1.00  0.00     0.026 A 
HETATM   26  C   UNL     1       9.043   1.823  24.335  1.00  0.00    -0.033 A 
HETATM   27  C   UNL     1       8.152   1.629  25.471  1.00  0.00     0.050 C 
ENDBRANCH  18  20
ENDBRANCH  15  16
ENDBRANCH   1  15
TORSDOF 7
ENDMDL
