stable:False satoms:20 tatoms:24 sratio:0.8333333333333334
  -OEChem-07092417283D

 24 23  0     0  0  0  0  0  0999 V2000
   10.1723    1.0613   21.3798 C   0  0  0  0  0  0  0  0  0  0  0  0
    9.5013   -1.9727   24.0330 S   0  0  0  0  0  0  0  0  0  0  0  0
    7.8248   -3.7696   24.8808 H   0  0  0  0  0  0  0  0  0  0  0  0
    9.1762    3.1081   22.9700 H   0  0  0  0  0  0  0  0  0  0  0  0
    7.5677    2.9004   22.2135 H   0  0  0  0  0  0  0  0  0  0  0  0
   10.3636    0.3901   20.5481 H   0  0  0  0  0  0  0  0  0  0  0  0
    9.1674    2.7998   19.9744 O   0  0  0  0  0  0  0  0  0  0  0  0
    8.2690   -5.4798   21.1936 C   0  5  0  0  0  0  0  0  0  0  0  0
   10.9598   -1.0211   22.4983 H   0  0  0  0  0  0  0  0  0  0  0  0
    8.3934   -4.9293   23.4545 O   0  0  0  0  0  0  0  0  0  0  0  0
    7.8907   -4.7677   22.3533 C   0  0  0  0  0  0  0  0  0  0  0  0
    9.2724    2.2210   21.0159 C   0  0  0  0  0  0  0  0  0  0  0  0
    9.4336    0.3805   22.4711 C   0  0  0  0  0  0  0  0  0  0  0  0
    7.7892   -1.4479   25.6684 H   0  0  0  0  0  0  0  0  0  0  0  0
    6.6345   -3.6655   22.0792 S   0  0  0  0  0  0  0  0  0  0  0  0
    7.7870   -1.8050   24.6198 C   0  0  0  0  0  0  0  0  0  0  0  0
    7.2024   -3.0631   24.5298 N   0  5  0  0  0  0  0  0  0  0  0  0
    9.9759   -0.7775   22.8998 C   0  0  0  0  0  0  0  0  0  0  0  0
    9.1988   -5.9683   21.0659 H   0  0  0  0  0  0  0  0  0  0  0  0
   11.1097    1.4440   21.7913 H   0  0  0  0  0  0  0  0  0  0  0  0
    8.4229    1.1621   22.9309 O   0  0  0  0  0  0  0  0  0  0  0  0
    7.3561   -1.0218   23.9808 H   0  0  0  0  0  0  0  0  0  0  0  0
    8.5494    2.4489   22.3354 C   0  0  0  0  0  0  0  0  0  0  0  0
    7.5661   -5.5169   20.4092 H   0  0  0  0  0  0  0  0  0  0  0  0
  7 12  2  0  0  0  0
  8 24  1  0  0  0  0
  1  6  1  0  0  0  0
  1 12  1  0  0  0  0
 12 23  1  0  0  0  0
  8 19  1  0  0  0  0
  8 11  1  0  0  0  0
  1 20  1  0  0  0  0
  1 13  1  0  0  0  0
 11 15  1  0  0  0  0
  5 23  1  0  0  0  0
 21 23  1  0  0  0  0
  4 23  1  0  0  0  0
 10 11  2  0  0  0  0
 13 18  2  0  0  0  0
 13 21  1  0  0  0  0
  9 18  1  0  0  0  0
  2 18  1  0  0  0  0
 16 22  1  0  0  0  0
  2 16  1  0  0  0  0
 16 17  1  0  0  0  0
  3 17  1  0  0  0  0
 14 16  1  0  0  0  0
M  CHG  2   8  -1  17  -1
M  END
> <Shapegauss>
-116.274216

$$$$
