stable:False satoms:7 tatoms:24 sratio:0.2916666666666667
  -OEChem-07092417483D

 24 24  0     1  0  0  0  0  0999 V2000
    6.6168   -4.8475   26.4363 C   0  0  0  0  0  0  0  0  0  0  0  0
    8.1662   -4.3042   26.1182 S   0  0  0  0  0  0  0  0  0  0  0  0
    9.0381   -5.4507   26.0686 O   0  0  0  0  0  0  0  0  0  0  0  0
    8.5787   -3.3705   27.1522 O   0  0  0  0  0  0  0  0  0  0  0  0
    8.1015   -3.5641   24.6556 N   0  0  0  0  0  0  0  0  0  0  0  0
    8.9610   -2.9398   24.1563 C   0  0  0  0  0  0  0  0  0  0  0  0
    9.4164   -1.9588   23.4963 C   0  0  0  0  0  0  0  0  0  0  0  0
   10.3094   -1.0885   23.3080 C   0  0  2  0  0  0  0  0  0  0  0  0
   11.0436   -0.0479   24.3492 C   0  0  0  0  0  0  0  0  0  0  0  0
   12.0893    0.2271   24.1993 C   0  0  0  0  0  0  0  0  0  0  0  0
   13.1750   -0.1200   23.4847 C   0  0  0  0  0  0  0  0  0  0  0  0
   12.7007   -1.3510   22.6297 C   0  0  0  0  0  0  0  0  0  0  0  0
   11.8130   -1.7942   22.4810 C   0  0  0  0  0  0  0  0  0  0  0  0
    9.7439   -0.5525   22.3640 C   0  0  0  0  0  0  0  0  0  0  0  0
    9.0705    0.0418   21.3842 C   0  0  0  0  0  0  0  0  0  0  0  0
    9.5598    0.9754   20.9537 O   0  0  0  0  0  0  0  0  0  0  0  0
    7.9384   -0.5702   21.0727 N   0  0  0  0  0  0  0  0  0  0  0  0
    7.1820   -0.0992   20.1897 C   0  0  0  0  0  0  0  0  0  0  0  0
    7.2449   -0.0037   18.8538 C   0  0  0  0  0  0  0  0  0  0  0  0
    6.8385    0.3090   17.7678 N   0  0  0  0  0  0  0  0  0  0  0  0
    5.6028    0.9524   18.2446 C   0  0  0  0  0  0  0  0  0  0  0  0
    5.2597    0.9938   19.3969 C   0  0  0  0  0  0  0  0  0  0  0  0
    5.8304    0.5716   20.5546 C   0  0  0  0  0  0  0  0  0  0  0  0
    5.3033    0.7016   21.9794 C   0  0  0  0  0  0  0  0  0  0  0  0
 20 21  2  0  0  0  0
 19 20  1  0  0  0  0
 21 22  1  0  0  0  0
 18 19  2  0  0  0  0
 22 23  2  0  0  0  0
 18 23  1  0  0  0  0
 17 18  1  0  0  0  0
 23 24  1  0  0  0  0
 15 16  2  0  0  0  0
 15 17  1  0  0  0  0
 14 15  1  0  0  0  0
  8 14  1  0  0  0  0
 12 13  2  0  0  0  0
 11 12  1  0  0  0  0
  7  8  1  0  0  0  0
  8  9  1  0  0  0  0
 10 11  1  0  0  0  0
  6  7  2  3  0  0  0
  5  6  1  0  0  0  0
  9 10  2  0  0  0  0
  2  5  1  0  0  0  0
  2  3  2  0  0  0  0
  1  2  1  0  0  0  0
  2  4  2  0  0  0  0
M  END
> <Shapegauss>
-284.268646

$$$$
