MODEL 1
REMARK VINA RESULT:    -6.287      0.000      0.000
REMARK INTER + INTRA:         -11.519
REMARK INTER:                  -9.963
REMARK INTRA:                  -1.556
REMARK UNBOUND:                -1.556
REMARK  10 active torsions:
REMARK  status: ('A' for Active; 'I' for Inactive)
REMARK    1  A    between atoms: S_2  and  N_5 
REMARK    2  A    between atoms: N_5  and  C_7 
REMARK    3  A    between atoms: C_8  and  C_9 
REMARK    4  A    between atoms: C_9  and  C_15 
REMARK    5  A    between atoms: C_9  and  C_10 
REMARK    6  A    between atoms: C_10  and  C_11 
REMARK    7  A    between atoms: C_11  and  C_12 
REMARK    8  A    between atoms: C_12  and  C_13 
REMARK    9  A    between atoms: C_15  and  C_16 
REMARK       I    between atoms: C_16  and  N_18 
REMARK   10  A    between atoms: N_18  and  C_20 
ROOT
HETATM    1  C   UNL     1       9.559  -1.971  22.954  1.00  0.00     0.108 C 
ENDROOT
BRANCH   1   2
HETATM    2  C   UNL     1       8.637  -2.830  22.914  1.00  0.00     0.011 C 
HETATM    3  C   UNL     1       7.654  -3.411  23.462  1.00  0.00     0.097 C 
BRANCH   3   4
HETATM    4  N   UNL     1       6.587  -3.901  23.460  1.00  0.00    -0.296 N 
ATOM      5  HN  UNL     1       6.114  -3.979  24.361  1.00  0.00     0.177 HD
BRANCH   4   6
HETATM    6  S   UNL     1       5.785  -4.472  22.148  1.00  0.00     0.226 S 
HETATM    7  C   UNL     1       6.689  -5.754  21.570  1.00  0.00     0.186 C 
HETATM    8  O   UNL     1       4.488  -4.977  22.525  1.00  0.00    -0.206 OA
HETATM    9  O   UNL     1       5.677  -3.448  21.123  1.00  0.00    -0.206 OA
ENDBRANCH   4   6
ENDBRANCH   3   4
ENDBRANCH   1   2
BRANCH   1  10
HETATM   10  C   UNL     1       9.064  -1.236  22.109  1.00  0.00    -0.071 C 
BRANCH  10  11
HETATM   11  C   UNL     1       8.477  -0.495  21.175  1.00  0.00     0.289 C 
HETATM   12  O   UNL     1       9.162   0.236  20.634  1.00  0.00    -0.259 OA
HETATM   13  N   UNL     1       7.185  -0.747  21.032  1.00  0.00    -0.315 N 
ATOM     14  HN  UNL     1       6.747  -1.477  21.594  1.00  0.00     0.170 HD
BRANCH  13  15
HETATM   15  C   UNL     1       6.497  -0.096  20.210  1.00  0.00     0.057 A 
HETATM   16  C   UNL     1       6.036  -0.335  18.974  1.00  0.00     0.117 A 
HETATM   17  N   UNL     1       5.441  -0.064  17.966  1.00  0.00    -0.373 N 
HETATM   18  C   UNL     1       5.052   1.295  18.377  1.00  0.00     0.088 A 
ATOM     19  HN  UNL     1       5.265  -0.595  17.114  1.00  0.00     0.164 HD
HETATM   20  C   UNL     1       5.299   1.777  19.451  1.00  0.00     0.026 A 
HETATM   21  C   UNL     1       5.989   1.336  20.534  1.00  0.00    -0.033 A 
HETATM   22  C   UNL     1       6.257   2.055  21.851  1.00  0.00     0.050 C 
ENDBRANCH  13  15
ENDBRANCH  10  11
ENDBRANCH   1  10
BRANCH   1  23
HETATM   23  C   UNL     1      10.254  -1.186  24.222  1.00  0.00    -0.010 C 
BRANCH  23  24
HETATM   24  C   UNL     1      11.080  -0.494  24.050  1.00  0.00    -0.025 C 
BRANCH  24  25
HETATM   25  C   UNL     1      11.644   0.617  24.557  1.00  0.00     0.053 C 
BRANCH  25  26
HETATM   26  C   UNL     1      10.824   1.796  23.917  1.00  0.00    -0.033 C 
HETATM   27  C   UNL     1      10.851   2.259  23.028  1.00  0.00     0.007 C 
ENDBRANCH  25  26
ENDBRANCH  24  25
ENDBRANCH  23  24
ENDBRANCH   1  23
TORSDOF 10
ENDMDL
MODEL 2
REMARK VINA RESULT:    -6.005      2.251      2.649
REMARK INTER + INTRA:         -11.073
REMARK INTER:                  -9.820
REMARK INTRA:                  -1.253
REMARK UNBOUND:                -1.556
REMARK  10 active torsions:
REMARK  status: ('A' for Active; 'I' for Inactive)
REMARK    1  A    between atoms: S_2  and  N_5 
REMARK    2  A    between atoms: N_5  and  C_7 
REMARK    3  A    between atoms: C_8  and  C_9 
REMARK    4  A    between atoms: C_9  and  C_15 
REMARK    5  A    between atoms: C_9  and  C_10 
REMARK    6  A    between atoms: C_10  and  C_11 
REMARK    7  A    between atoms: C_11  and  C_12 
REMARK    8  A    between atoms: C_12  and  C_13 
REMARK    9  A    between atoms: C_15  and  C_16 
REMARK       I    between atoms: C_16  and  N_18 
REMARK   10  A    between atoms: N_18  and  C_20 
ROOT
HETATM    1  C   UNL     1       9.230  -1.198  24.201  1.00  0.00     0.108 C 
ENDROOT
BRANCH   1   2
HETATM    2  C   UNL     1       8.397  -2.115  24.437  1.00  0.00     0.011 C 
HETATM    3  C   UNL     1       8.058  -3.334  24.371  1.00  0.00     0.097 C 
BRANCH   3   4
HETATM    4  N   UNL     1       7.572  -4.316  24.793  1.00  0.00    -0.296 N 
ATOM      5  HN  UNL     1       7.201  -4.977  24.111  1.00  0.00     0.177 HD
BRANCH   4   6
HETATM    6  S   UNL     1       7.433  -4.724  26.375  1.00  0.00     0.226 S 
HETATM    7  C   UNL     1       6.315  -3.670  27.034  1.00  0.00     0.186 C 
HETATM    8  O   UNL     1       6.916  -6.063  26.511  1.00  0.00    -0.206 OA
HETATM    9  O   UNL     1       8.707  -4.578  27.060  1.00  0.00    -0.206 OA
ENDBRANCH   4   6
ENDBRANCH   3   4
ENDBRANCH   1   2
BRANCH   1  10
HETATM   10  C   UNL     1       8.765  -0.906  23.107  1.00  0.00    -0.071 C 
BRANCH  10  11
HETATM   11  C   UNL     1       8.329  -0.558  21.900  1.00  0.00     0.289 C 
HETATM   12  O   UNL     1       9.142  -0.325  21.138  1.00  0.00    -0.259 OA
HETATM   13  N   UNL     1       7.009  -0.552  21.795  1.00  0.00    -0.315 N 
ATOM     14  HN  UNL     1       6.437  -0.830  22.593  1.00  0.00     0.170 HD
BRANCH  13  15
HETATM   15  C   UNL     1       6.458  -0.208  20.722  1.00  0.00     0.057 A 
HETATM   16  C   UNL     1       6.095  -0.854  19.605  1.00  0.00     0.117 A 
HETATM   17  N   UNL     1       5.621  -0.936  18.504  1.00  0.00    -0.373 N 
HETATM   18  C   UNL     1       5.312   0.496  18.362  1.00  0.00     0.088 A 
ATOM     19  HN  UNL     1       5.481  -1.728  17.878  1.00  0.00     0.164 HD
HETATM   20  C   UNL     1       5.498   1.320  19.219  1.00  0.00     0.026 A 
HETATM   21  C   UNL     1       6.044   1.265  20.461  1.00  0.00    -0.033 A 
HETATM   22  C   UNL     1       6.249   2.396  21.462  1.00  0.00     0.050 C 
ENDBRANCH  13  15
ENDBRANCH  10  11
ENDBRANCH   1  10
BRANCH   1  23
HETATM   23  C   UNL     1       9.711   0.089  25.107  1.00  0.00    -0.010 C 
BRANCH  23  24
HETATM   24  C   UNL     1      10.748   0.423  25.072  1.00  0.00    -0.025 C 
BRANCH  24  25
HETATM   25  C   UNL     1      11.687   0.847  24.207  1.00  0.00     0.053 C 
BRANCH  25  26
HETATM   26  C   UNL     1      12.829  -0.228  24.315  1.00  0.00    -0.033 C 
HETATM   27  C   UNL     1      13.129  -0.986  23.729  1.00  0.00     0.007 C 
ENDBRANCH  25  26
ENDBRANCH  24  25
ENDBRANCH  23  24
ENDBRANCH   1  23
TORSDOF 10
ENDMDL
MODEL 3
REMARK VINA RESULT:    -6.000      1.955      5.569
REMARK INTER + INTRA:         -11.063
REMARK INTER:                 -10.040
REMARK INTRA:                  -1.023
REMARK UNBOUND:                -1.556
REMARK  10 active torsions:
REMARK  status: ('A' for Active; 'I' for Inactive)
REMARK    1  A    between atoms: S_2  and  N_5 
REMARK    2  A    between atoms: N_5  and  C_7 
REMARK    3  A    between atoms: C_8  and  C_9 
REMARK    4  A    between atoms: C_9  and  C_15 
REMARK    5  A    between atoms: C_9  and  C_10 
REMARK    6  A    between atoms: C_10  and  C_11 
REMARK    7  A    between atoms: C_11  and  C_12 
REMARK    8  A    between atoms: C_12  and  C_13 
REMARK    9  A    between atoms: C_15  and  C_16 
REMARK       I    between atoms: C_16  and  N_18 
REMARK   10  A    between atoms: N_18  and  C_20 
ROOT
HETATM    1  C   UNL     1       6.773  -0.704  21.047  1.00  0.00     0.108 C 
ENDROOT
BRANCH   1   2
HETATM    2  C   UNL     1       6.653  -1.677  21.840  1.00  0.00     0.011 C 
HETATM    3  C   UNL     1       6.727  -2.921  22.070  1.00  0.00     0.097 C 
BRANCH   3   4
HETATM    4  N   UNL     1       6.982  -3.855  22.734  1.00  0.00    -0.296 N 
ATOM      5  HN  UNL     1       7.860  -3.826  23.253  1.00  0.00     0.177 HD
BRANCH   4   6
HETATM    6  S   UNL     1       6.063  -5.203  22.904  1.00  0.00     0.226 S 
HETATM    7  C   UNL     1       6.817  -6.399  22.011  1.00  0.00     0.186 C 
HETATM    8  O   UNL     1       6.035  -5.628  24.281  1.00  0.00    -0.206 OA
HETATM    9  O   UNL     1       4.721  -4.981  22.391  1.00  0.00    -0.206 OA
ENDBRANCH   4   6
ENDBRANCH   3   4
ENDBRANCH   1   2
BRANCH   1  10
HETATM   10  C   UNL     1       7.922  -0.436  21.373  1.00  0.00    -0.071 C 
BRANCH  10  11
HETATM   11  C   UNL     1       9.188  -0.217  21.715  1.00  0.00     0.289 C 
HETATM   12  O   UNL     1       9.731   0.565  21.091  1.00  0.00    -0.259 OA
HETATM   13  N   UNL     1       9.595  -0.951  22.738  1.00  0.00    -0.315 N 
ATOM     14  HN  UNL     1       8.941  -1.584  23.199  1.00  0.00     0.170 HD
BRANCH  13  15
HETATM   15  C   UNL     1      10.779  -0.875  23.145  1.00  0.00     0.057 A 
HETATM   16  C   UNL     1      11.913  -1.531  22.861  1.00  0.00     0.117 A 
HETATM   17  N   UNL     1      13.085  -1.771  22.972  1.00  0.00    -0.373 N 
HETATM   18  C   UNL     1      13.346  -0.782  24.031  1.00  0.00     0.088 A 
ATOM     19  HN  UNL     1      13.693  -2.436  22.495  1.00  0.00     0.164 HD
HETATM   20  C   UNL     1      12.522  -0.023  24.469  1.00  0.00     0.026 A 
HETATM   21  C   UNL     1      11.197   0.153  24.232  1.00  0.00    -0.033 A 
HETATM   22  C   UNL     1      10.238   1.148  24.874  1.00  0.00     0.050 C 
ENDBRANCH  13  15
ENDBRANCH  10  11
ENDBRANCH   1  10
BRANCH   1  23
HETATM   23  C   UNL     1       6.470  -0.577  19.435  1.00  0.00    -0.010 C 
BRANCH  23  24
HETATM   24  C   UNL     1       6.509   0.399  18.948  1.00  0.00    -0.025 C 
BRANCH  24  25
HETATM   25  C   UNL     1       5.733   1.272  18.281  1.00  0.00     0.053 C 
BRANCH  25  26
HETATM   26  C   UNL     1       4.477   1.461  19.207  1.00  0.00    -0.033 C 
HETATM   27  C   UNL     1       4.191   2.171  19.856  1.00  0.00     0.007 C 
ENDBRANCH  25  26
ENDBRANCH  24  25
ENDBRANCH  23  24
ENDBRANCH   1  23
TORSDOF 10
ENDMDL
MODEL 4
REMARK VINA RESULT:    -5.967     14.377     16.376
REMARK INTER + INTRA:         -11.011
REMARK INTER:                  -9.580
REMARK INTRA:                  -1.431
REMARK UNBOUND:                -1.556
REMARK  10 active torsions:
REMARK  status: ('A' for Active; 'I' for Inactive)
REMARK    1  A    between atoms: S_2  and  N_5 
REMARK    2  A    between atoms: N_5  and  C_7 
REMARK    3  A    between atoms: C_8  and  C_9 
REMARK    4  A    between atoms: C_9  and  C_15 
REMARK    5  A    between atoms: C_9  and  C_10 
REMARK    6  A    between atoms: C_10  and  C_11 
REMARK    7  A    between atoms: C_11  and  C_12 
REMARK    8  A    between atoms: C_12  and  C_13 
REMARK    9  A    between atoms: C_15  and  C_16 
REMARK       I    between atoms: C_16  and  N_18 
REMARK   10  A    between atoms: N_18  and  C_20 
ROOT
HETATM    1  C   UNL     1      24.180  -1.917  23.448  1.00  0.00     0.108 C 
ENDROOT
BRANCH   1   2
HETATM    2  C   UNL     1      23.950  -3.146  23.609  1.00  0.00     0.011 C 
HETATM    3  C   UNL     1      24.010  -4.189  24.326  1.00  0.00     0.097 C 
BRANCH   3   4
HETATM    4  N   UNL     1      23.587  -5.197  24.756  1.00  0.00    -0.296 N 
ATOM      5  HN  UNL     1      22.592  -5.220  24.981  1.00  0.00     0.177 HD
BRANCH   4   6
HETATM    6  S   UNL     1      24.443  -6.568  25.028  1.00  0.00     0.226 S 
HETATM    7  C   UNL     1      26.042  -6.101  25.173  1.00  0.00     0.186 C 
HETATM    8  O   UNL     1      24.045  -7.178  26.273  1.00  0.00    -0.206 OA
HETATM    9  O   UNL     1      24.302  -7.495  23.918  1.00  0.00    -0.206 OA
ENDBRANCH   4   6
ENDBRANCH   3   4
ENDBRANCH   1   2
BRANCH   1  10
HETATM   10  C   UNL     1      23.725  -1.867  22.312  1.00  0.00    -0.071 C 
BRANCH  10  11
HETATM   11  C   UNL     1      23.271  -1.748  21.068  1.00  0.00     0.289 C 
HETATM   12  O   UNL     1      22.149  -1.896  20.945  1.00  0.00    -0.259 OA
HETATM   13  N   UNL     1      24.215  -1.468  20.184  1.00  0.00    -0.315 N 
ATOM     14  HN  UNL     1      25.178  -1.336  20.495  1.00  0.00     0.170 HD
BRANCH  13  15
HETATM   15  C   UNL     1      23.935  -1.364  18.966  1.00  0.00     0.057 A 
HETATM   16  C   UNL     1      23.500  -0.364  18.185  1.00  0.00     0.117 A 
HETATM   17  N   UNL     1      23.150   0.129  17.147  1.00  0.00    -0.373 N 
HETATM   18  C   UNL     1      23.268  -1.100  16.345  1.00  0.00     0.088 A 
ATOM     19  HN  UNL     1      22.867   1.077  16.903  1.00  0.00     0.164 HD
HETATM   20  C   UNL     1      23.666  -2.153  16.770  1.00  0.00     0.026 A 
HETATM   21  C   UNL     1      24.054  -2.575  18.001  1.00  0.00    -0.033 A 
HETATM   22  C   UNL     1      24.525  -3.959  18.429  1.00  0.00     0.050 C 
ENDBRANCH  13  15
ENDBRANCH  10  11
ENDBRANCH   1  10
BRANCH   1  23
HETATM   23  C   UNL     1      23.821  -0.615  24.388  1.00  0.00    -0.010 C 
BRANCH  23  24
HETATM   24  C   UNL     1      22.884  -0.076  24.238  1.00  0.00    -0.025 C 
BRANCH  24  25
HETATM   25  C   UNL     1      21.769   0.295  24.893  1.00  0.00     0.053 C 
BRANCH  25  26
HETATM   26  C   UNL     1      20.714  -0.810  24.523  1.00  0.00    -0.033 C 
HETATM   27  C   UNL     1      20.596  -1.773  24.780  1.00  0.00     0.007 C 
ENDBRANCH  25  26
ENDBRANCH  24  25
ENDBRANCH  23  24
ENDBRANCH   1  23
TORSDOF 10
ENDMDL
MODEL 5
REMARK VINA RESULT:    -5.906      2.640      5.975
REMARK INTER + INTRA:         -10.914
REMARK INTER:                  -9.645
REMARK INTRA:                  -1.270
REMARK UNBOUND:                -1.556
REMARK  10 active torsions:
REMARK  status: ('A' for Active; 'I' for Inactive)
REMARK    1  A    between atoms: S_2  and  N_5 
REMARK    2  A    between atoms: N_5  and  C_7 
REMARK    3  A    between atoms: C_8  and  C_9 
REMARK    4  A    between atoms: C_9  and  C_15 
REMARK    5  A    between atoms: C_9  and  C_10 
REMARK    6  A    between atoms: C_10  and  C_11 
REMARK    7  A    between atoms: C_11  and  C_12 
REMARK    8  A    between atoms: C_12  and  C_13 
REMARK    9  A    between atoms: C_15  and  C_16 
REMARK       I    between atoms: C_16  and  N_18 
REMARK   10  A    between atoms: N_18  and  C_20 
ROOT
HETATM    1  C   UNL     1       7.082  -3.374  22.012  1.00  0.00     0.108 C 
ENDROOT
BRANCH   1   2
HETATM    2  C   UNL     1       6.319  -2.446  21.628  1.00  0.00     0.011 C 
HETATM    3  C   UNL     1       6.156  -1.310  21.092  1.00  0.00     0.097 C 
BRANCH   3   4
HETATM    4  N   UNL     1       5.595  -0.542  20.403  1.00  0.00    -0.296 N 
ATOM      5  HN  UNL     1       4.702  -0.186  20.742  1.00  0.00     0.177 HD
BRANCH   4   6
HETATM    6  S   UNL     1       6.112   0.011  18.948  1.00  0.00     0.226 S 
HETATM    7  C   UNL     1       5.249   1.411  18.646  1.00  0.00     0.186 C 
HETATM    8  O   UNL     1       7.511   0.355  19.003  1.00  0.00    -0.206 OA
HETATM    9  O   UNL     1       5.848  -0.963  17.902  1.00  0.00    -0.206 OA
ENDBRANCH   4   6
ENDBRANCH   3   4
ENDBRANCH   1   2
BRANCH   1  10
HETATM   10  C   UNL     1       8.055  -2.652  22.186  1.00  0.00    -0.071 C 
BRANCH  10  11
HETATM   11  C   UNL     1       9.145  -1.901  22.313  1.00  0.00     0.289 C 
HETATM   12  O   UNL     1       9.259  -1.075  21.538  1.00  0.00    -0.259 OA
HETATM   13  N   UNL     1       9.910  -2.248  23.336  1.00  0.00    -0.315 N 
ATOM     14  HN  UNL     1       9.619  -3.008  23.952  1.00  0.00     0.170 HD
BRANCH  13  15
HETATM   15  C   UNL     1      10.990  -1.648  23.555  1.00  0.00     0.057 A 
HETATM   16  C   UNL     1      12.257  -1.818  23.149  1.00  0.00     0.117 A 
HETATM   17  N   UNL     1      13.426  -1.548  23.100  1.00  0.00    -0.373 N 
HETATM   18  C   UNL     1      13.362  -0.414  24.037  1.00  0.00     0.088 A 
ATOM     19  HN  UNL     1      14.201  -1.963  22.584  1.00  0.00     0.164 HD
HETATM   20  C   UNL     1      12.349  -0.006  24.541  1.00  0.00     0.026 A 
HETATM   21  C   UNL     1      11.055  -0.413  24.493  1.00  0.00    -0.033 A 
HETATM   22  C   UNL     1       9.843   0.180  25.203  1.00  0.00     0.050 C 
ENDBRANCH  13  15
ENDBRANCH  10  11
ENDBRANCH   1  10
BRANCH   1  23
HETATM   23  C   UNL     1       6.880  -4.539  23.157  1.00  0.00    -0.010 C 
BRANCH  23  24
HETATM   24  C   UNL     1       6.702  -4.258  24.196  1.00  0.00    -0.025 C 
BRANCH  24  25
HETATM   25  C   UNL     1       7.318  -4.208  25.391  1.00  0.00     0.053 C 
BRANCH  25  26
HETATM   26  C   UNL     1       7.264  -2.690  25.793  1.00  0.00    -0.033 C 
HETATM   27  C   UNL     1       6.656  -2.146  26.378  1.00  0.00     0.007 C 
ENDBRANCH  25  26
ENDBRANCH  24  25
ENDBRANCH  23  24
ENDBRANCH   1  23
TORSDOF 10
ENDMDL
MODEL 6
REMARK VINA RESULT:    -5.865      2.826      6.722
REMARK INTER + INTRA:         -10.851
REMARK INTER:                  -9.019
REMARK INTRA:                  -1.832
REMARK UNBOUND:                -1.556
REMARK  10 active torsions:
REMARK  status: ('A' for Active; 'I' for Inactive)
REMARK    1  A    between atoms: S_2  and  N_5 
REMARK    2  A    between atoms: N_5  and  C_7 
REMARK    3  A    between atoms: C_8  and  C_9 
REMARK    4  A    between atoms: C_9  and  C_15 
REMARK    5  A    between atoms: C_9  and  C_10 
REMARK    6  A    between atoms: C_10  and  C_11 
REMARK    7  A    between atoms: C_11  and  C_12 
REMARK    8  A    between atoms: C_12  and  C_13 
REMARK    9  A    between atoms: C_15  and  C_16 
REMARK       I    between atoms: C_16  and  N_18 
REMARK   10  A    between atoms: N_18  and  C_20 
ROOT
HETATM    1  C   UNL     1       8.018   0.686  21.240  1.00  0.00     0.108 C 
ENDROOT
BRANCH   1   2
HETATM    2  C   UNL     1       9.236   0.794  21.549  1.00  0.00     0.011 C 
HETATM    3  C   UNL     1      10.132   1.139  22.375  1.00  0.00     0.097 C 
BRANCH   3   4
HETATM    4  N   UNL     1      11.155   1.004  22.935  1.00  0.00    -0.296 N 
ATOM      5  HN  UNL     1      11.915   1.629  22.664  1.00  0.00     0.177 HD
BRANCH   4   6
HETATM    6  S   UNL     1      11.479  -0.092  24.110  1.00  0.00     0.226 S 
HETATM    7  C   UNL     1      10.304   0.117  25.282  1.00  0.00     0.186 C 
HETATM    8  O   UNL     1      11.362  -1.435  23.599  1.00  0.00    -0.206 OA
HETATM    9  O   UNL     1      12.793   0.141  24.687  1.00  0.00    -0.206 OA
ENDBRANCH   4   6
ENDBRANCH   3   4
ENDBRANCH   1   2
BRANCH   1  10
HETATM   10  C   UNL     1       7.774  -0.194  22.055  1.00  0.00    -0.071 C 
BRANCH  10  11
HETATM   11  C   UNL     1       7.483  -1.096  22.987  1.00  0.00     0.289 C 
HETATM   12  O   UNL     1       6.552  -0.874  23.604  1.00  0.00    -0.259 OA
HETATM   13  N   UNL     1       8.333  -2.110  23.027  1.00  0.00    -0.315 N 
ATOM     14  HN  UNL     1       9.101  -2.153  22.356  1.00  0.00     0.170 HD
BRANCH  13  15
HETATM   15  C   UNL     1       8.201  -3.018  23.882  1.00  0.00     0.057 A 
HETATM   16  C   UNL     1       8.503  -3.131  25.184  1.00  0.00     0.117 A 
HETATM   17  N   UNL     1       8.559  -3.703  26.239  1.00  0.00    -0.373 N 
HETATM   18  C   UNL     1       7.984  -4.970  25.759  1.00  0.00     0.088 A 
ATOM     19  HN  UNL     1       8.892  -3.410  27.157  1.00  0.00     0.164 HD
HETATM   20  C   UNL     1       7.588  -5.155  24.638  1.00  0.00     0.026 A 
HETATM   21  C   UNL     1       7.573  -4.390  23.517  1.00  0.00    -0.033 A 
HETATM   22  C   UNL     1       7.058  -4.746  22.128  1.00  0.00     0.050 C 
ENDBRANCH  13  15
ENDBRANCH  10  11
ENDBRANCH   1  10
BRANCH   1  23
HETATM   23  C   UNL     1       6.836   1.820  21.080  1.00  0.00    -0.010 C 
BRANCH  23  24
HETATM   24  C   UNL     1       5.835   1.524  20.762  1.00  0.00    -0.025 C 
BRANCH  24  25
HETATM   25  C   UNL     1       4.992   1.624  19.719  1.00  0.00     0.053 C 
BRANCH  25  26
HETATM   26  C   UNL     1       5.303   0.356  18.844  1.00  0.00    -0.033 C 
HETATM   27  C   UNL     1       5.771   0.212  17.968  1.00  0.00     0.007 C 
ENDBRANCH  25  26
ENDBRANCH  24  25
ENDBRANCH  23  24
ENDBRANCH   1  23
TORSDOF 10
ENDMDL
MODEL 7
REMARK VINA RESULT:    -5.666     24.089     27.235
REMARK INTER + INTRA:         -10.534
REMARK INTER:                  -9.231
REMARK INTRA:                  -1.303
REMARK UNBOUND:                -1.556
REMARK  10 active torsions:
REMARK  status: ('A' for Active; 'I' for Inactive)
REMARK    1  A    between atoms: S_2  and  N_5 
REMARK    2  A    between atoms: N_5  and  C_7 
REMARK    3  A    between atoms: C_8  and  C_9 
REMARK    4  A    between atoms: C_9  and  C_15 
REMARK    5  A    between atoms: C_9  and  C_10 
REMARK    6  A    between atoms: C_10  and  C_11 
REMARK    7  A    between atoms: C_11  and  C_12 
REMARK    8  A    between atoms: C_12  and  C_13 
REMARK    9  A    between atoms: C_15  and  C_16 
REMARK       I    between atoms: C_16  and  N_18 
REMARK   10  A    between atoms: N_18  and  C_20 
ROOT
HETATM    1  C   UNL     1       8.422  17.477   1.319  1.00  0.00     0.108 C 
ENDROOT
BRANCH   1   2
HETATM    2  C   UNL     1       8.624  16.242   1.474  1.00  0.00     0.011 C 
HETATM    3  C   UNL     1       9.359  15.293   1.878  1.00  0.00     0.097 C 
BRANCH   3   4
HETATM    4  N   UNL     1       9.547  14.249   2.382  1.00  0.00    -0.296 N 
ATOM      5  HN  UNL     1      10.442  13.799   2.190  1.00  0.00     0.177 HD
BRANCH   4   6
HETATM    6  S   UNL     1       8.508  13.447   3.365  1.00  0.00     0.226 S 
HETATM    7  C   UNL     1       7.937  14.573   4.461  1.00  0.00     0.186 C 
HETATM    8  O   UNL     1       7.382  12.947   2.615  1.00  0.00    -0.206 OA
HETATM    9  O   UNL     1       9.189  12.376   4.073  1.00  0.00    -0.206 OA
ENDBRANCH   4   6
ENDBRANCH   3   4
ENDBRANCH   1   2
BRANCH   1  10
HETATM   10  C   UNL     1       9.032  17.817   2.325  1.00  0.00    -0.071 C 
BRANCH  10  11
HETATM   11  C   UNL     1       9.627  18.197   3.451  1.00  0.00     0.289 C 
HETATM   12  O   UNL     1       9.065  17.944   4.407  1.00  0.00    -0.259 OA
HETATM   13  N   UNL     1      10.788  18.805   3.258  1.00  0.00    -0.315 N 
ATOM     14  HN  UNL     1      11.152  18.911   2.311  1.00  0.00     0.170 HD
BRANCH  13  15
HETATM   15  C   UNL     1      11.443  19.250   4.230  1.00  0.00     0.057 A 
HETATM   16  C   UNL     1      12.383  18.742   5.040  1.00  0.00     0.117 A 
HETATM   17  N   UNL     1      13.166  18.778   5.950  1.00  0.00    -0.373 N 
HETATM   18  C   UNL     1      12.849  20.151   6.373  1.00  0.00     0.088 A 
ATOM     19  HN  UNL     1      13.827  18.089   6.309  1.00  0.00     0.164 HD
HETATM   20  C   UNL     1      12.063  20.870   5.814  1.00  0.00     0.026 A 
HETATM   21  C   UNL     1      11.233  20.697   4.754  1.00  0.00    -0.033 A 
HETATM   22  C   UNL     1      10.251  21.688   4.140  1.00  0.00     0.050 C 
ENDBRANCH  13  15
ENDBRANCH  10  11
ENDBRANCH   1  10
BRANCH   1  23
HETATM   23  C   UNL     1       8.648  18.458   0.017  1.00  0.00    -0.010 C 
BRANCH  23  24
HETATM   24  C   UNL     1       9.137  19.425   0.141  1.00  0.00    -0.025 C 
BRANCH  24  25
HETATM   25  C   UNL     1       9.098  20.689  -0.318  1.00  0.00     0.053 C 
BRANCH  25  26
HETATM   26  C   UNL     1      10.162  21.452   0.553  1.00  0.00    -0.033 C 
HETATM   27  C   UNL     1      10.706  22.284   0.415  1.00  0.00     0.007 C 
ENDBRANCH  25  26
ENDBRANCH  24  25
ENDBRANCH  23  24
ENDBRANCH   1  23
TORSDOF 10
ENDMDL
MODEL 8
REMARK VINA RESULT:    -5.444      2.673      5.859
REMARK INTER + INTRA:         -10.183
REMARK INTER:                  -9.128
REMARK INTRA:                  -1.055
REMARK UNBOUND:                -1.556
REMARK  10 active torsions:
REMARK  status: ('A' for Active; 'I' for Inactive)
REMARK    1  A    between atoms: S_2  and  N_5 
REMARK    2  A    between atoms: N_5  and  C_7 
REMARK    3  A    between atoms: C_8  and  C_9 
REMARK    4  A    between atoms: C_9  and  C_15 
REMARK    5  A    between atoms: C_9  and  C_10 
REMARK    6  A    between atoms: C_10  and  C_11 
REMARK    7  A    between atoms: C_11  and  C_12 
REMARK    8  A    between atoms: C_12  and  C_13 
REMARK    9  A    between atoms: C_15  and  C_16 
REMARK       I    between atoms: C_16  and  N_18 
REMARK   10  A    between atoms: N_18  and  C_20 
ROOT
HETATM    1  C   UNL     1       8.853   0.351  23.008  1.00  0.00     0.108 C 
ENDROOT
BRANCH   1   2
HETATM    2  C   UNL     1       8.152   0.113  21.987  1.00  0.00     0.011 C 
HETATM    3  C   UNL     1       7.734   0.450  20.840  1.00  0.00     0.097 C 
BRANCH   3   4
HETATM    4  N   UNL     1       7.421   0.234  19.729  1.00  0.00    -0.296 N 
ATOM      5  HN  UNL     1       8.138   0.360  19.014  1.00  0.00     0.177 HD
BRANCH   4   6
HETATM    6  S   UNL     1       5.940  -0.249  19.217  1.00  0.00     0.226 S 
HETATM    7  C   UNL     1       4.904   1.031  19.508  1.00  0.00     0.186 C 
HETATM    8  O   UNL     1       5.949  -0.500  17.798  1.00  0.00    -0.206 OA
HETATM    9  O   UNL     1       5.493  -1.418  19.957  1.00  0.00    -0.206 OA
ENDBRANCH   4   6
ENDBRANCH   3   4
ENDBRANCH   1   2
BRANCH   1  10
HETATM   10  C   UNL     1       8.733  -0.768  23.489  1.00  0.00    -0.071 C 
BRANCH  10  11
HETATM   11  C   UNL     1       8.610  -2.012  23.941  1.00  0.00     0.289 C 
HETATM   12  O   UNL     1       9.048  -2.819  23.268  1.00  0.00    -0.259 OA
HETATM   13  N   UNL     1       7.998  -2.092  25.112  1.00  0.00    -0.315 N 
ATOM     14  HN  UNL     1       7.702  -1.239  25.588  1.00  0.00     0.170 HD
BRANCH  13  15
HETATM   15  C   UNL     1       7.781  -3.208  25.642  1.00  0.00     0.057 A 
HETATM   16  C   UNL     1       8.508  -4.048  26.392  1.00  0.00     0.117 A 
HETATM   17  N   UNL     1       8.698  -5.054  27.021  1.00  0.00    -0.373 N 
HETATM   18  C   UNL     1       7.376  -5.648  26.765  1.00  0.00     0.088 A 
ATOM     19  HN  UNL     1       9.503  -5.385  27.552  1.00  0.00     0.164 HD
HETATM   20  C   UNL     1       6.497  -5.109  26.146  1.00  0.00     0.026 A 
HETATM   21  C   UNL     1       6.414  -3.927  25.483  1.00  0.00    -0.033 A 
HETATM   22  C   UNL     1       5.236  -3.352  24.705  1.00  0.00     0.050 C 
ENDBRANCH  13  15
ENDBRANCH  10  11
ENDBRANCH   1  10
BRANCH   1  23
HETATM   23  C   UNL     1      10.355   1.006  23.162  1.00  0.00    -0.010 C 
BRANCH  23  24
HETATM   24  C   UNL     1      11.028   0.650  23.943  1.00  0.00    -0.025 C 
BRANCH  24  25
HETATM   25  C   UNL     1      12.337   0.536  24.231  1.00  0.00     0.053 C 
BRANCH  25  26
HETATM   26  C   UNL     1      12.727  -0.894  23.708  1.00  0.00    -0.033 C 
HETATM   27  C   UNL     1      12.282  -1.558  23.102  1.00  0.00     0.007 C 
ENDBRANCH  25  26
ENDBRANCH  24  25
ENDBRANCH  23  24
ENDBRANCH   1  23
TORSDOF 10
ENDMDL
MODEL 9
REMARK VINA RESULT:    -5.370      3.216      7.001
REMARK INTER + INTRA:         -10.066
REMARK INTER:                  -8.997
REMARK INTRA:                  -1.069
REMARK UNBOUND:                -1.556
REMARK  10 active torsions:
REMARK  status: ('A' for Active; 'I' for Inactive)
REMARK    1  A    between atoms: S_2  and  N_5 
REMARK    2  A    between atoms: N_5  and  C_7 
REMARK    3  A    between atoms: C_8  and  C_9 
REMARK    4  A    between atoms: C_9  and  C_15 
REMARK    5  A    between atoms: C_9  and  C_10 
REMARK    6  A    between atoms: C_10  and  C_11 
REMARK    7  A    between atoms: C_11  and  C_12 
REMARK    8  A    between atoms: C_12  and  C_13 
REMARK    9  A    between atoms: C_15  and  C_16 
REMARK       I    between atoms: C_16  and  N_18 
REMARK   10  A    between atoms: N_18  and  C_20 
ROOT
HETATM    1  C   UNL     1       8.133  -1.730  21.838  1.00  0.00     0.108 C 
ENDROOT
BRANCH   1   2
HETATM    2  C   UNL     1       9.106  -1.623  22.634  1.00  0.00     0.011 C 
HETATM    3  C   UNL     1      10.349  -1.699  22.863  1.00  0.00     0.097 C 
BRANCH   3   4
HETATM    4  N   UNL     1      11.353  -1.338  23.353  1.00  0.00    -0.296 N 
ATOM      5  HN  UNL     1      12.187  -1.891  23.159  1.00  0.00     0.177 HD
BRANCH   4   6
HETATM    6  S   UNL     1      11.541  -0.027  24.321  1.00  0.00     0.226 S 
HETATM    7  C   UNL     1      11.161   1.305  23.384  1.00  0.00     0.186 C 
HETATM    8  O   UNL     1      10.613  -0.073  25.424  1.00  0.00    -0.206 OA
HETATM    9  O   UNL     1      12.913   0.078  24.788  1.00  0.00    -0.206 OA
ENDBRANCH   4   6
ENDBRANCH   3   4
ENDBRANCH   1   2
BRANCH   1  10
HETATM   10  C   UNL     1       7.670  -2.735  22.363  1.00  0.00    -0.071 C 
BRANCH  10  11
HETATM   11  C   UNL     1       7.218  -3.817  22.989  1.00  0.00     0.289 C 
HETATM   12  O   UNL     1       7.411  -4.803  22.455  1.00  0.00    -0.259 OA
HETATM   13  N   UNL     1       6.622  -3.551  24.141  1.00  0.00    -0.315 N 
ATOM     14  HN  UNL     1       6.575  -2.589  24.477  1.00  0.00     0.170 HD
BRANCH  13  15
HETATM   15  C   UNL     1       6.115  -4.474  24.822  1.00  0.00     0.057 A 
HETATM   16  C   UNL     1       4.952  -5.141  24.780  1.00  0.00     0.117 A 
HETATM   17  N   UNL     1       4.156  -5.960  25.155  1.00  0.00    -0.373 N 
HETATM   18  C   UNL     1       4.952  -6.437  26.297  1.00  0.00     0.088 A 
ATOM     19  HN  UNL     1       3.240  -6.232  24.801  1.00  0.00     0.164 HD
HETATM   20  C   UNL     1       6.056  -6.044  26.568  1.00  0.00     0.026 A 
HETATM   21  C   UNL     1       6.865  -5.095  26.031  1.00  0.00    -0.033 A 
HETATM   22  C   UNL     1       8.256  -4.664  26.480  1.00  0.00     0.050 C 
ENDBRANCH  13  15
ENDBRANCH  10  11
ENDBRANCH   1  10
BRANCH   1  23
HETATM   23  C   UNL     1       7.009  -0.633  21.349  1.00  0.00    -0.010 C 
BRANCH  23  24
HETATM   24  C   UNL     1       6.662  -0.631  20.314  1.00  0.00    -0.025 C 
BRANCH  24  25
HETATM   25  C   UNL     1       5.538  -0.523  19.583  1.00  0.00     0.053 C 
BRANCH  25  26
HETATM   26  C   UNL     1       5.395   1.019  19.316  1.00  0.00    -0.033 C 
HETATM   27  C   UNL     1       4.671   1.692  19.492  1.00  0.00     0.007 C 
ENDBRANCH  25  26
ENDBRANCH  24  25
ENDBRANCH  23  24
ENDBRANCH   1  23
TORSDOF 10
ENDMDL
