stable:False satoms:18 tatoms:24 sratio:0.75
  -OEChem-07092417343D

 24 23  0     0  0  0  0  0  0999 V2000
    7.1157   -4.2306   26.2517 H   0  0  0  0  0  0  0  0  0  0  0  0
    8.0090   -3.9857   25.6982 C   0  0  0  0  0  0  0  0  0  0  0  0
    8.6893   -4.8144   25.5770 H   0  0  0  0  0  0  0  0  0  0  0  0
    8.6796   -3.0195   26.3477 F   0  0  0  0  0  0  0  0  0  0  0  0
    7.4688   -3.4667   24.0474 S   0  0  0  0  0  0  0  0  0  0  0  0
    9.6387   -0.6757   22.9821 C   0  0  0  0  0  0  0  0  0  0  0  0
   10.2131   -0.9527   23.8306 H   0  0  0  0  0  0  0  0  0  0  0  0
    8.3853   -2.2844   23.4008 C   0  0  0  0  0  0  0  0  0  0  0  0
   11.6886    0.5444   24.0540 H   0  0  0  0  0  0  0  0  0  0  0  0
   12.4448   -0.0988   23.6365 C   0  0  0  0  0  0  0  0  0  0  0  0
   13.4119    0.2649   23.9253 H   0  0  0  0  0  0  0  0  0  0  0  0
   12.3935   -0.1011   22.5653 H   0  0  0  0  0  0  0  0  0  0  0  0
   12.2958   -1.0935   23.9823 H   0  0  0  0  0  0  0  0  0  0  0  0
    8.5721   -1.3292   22.6666 C   0  0  0  0  0  0  0  0  0  0  0  0
    7.6206   -0.8796   21.6141 C   0  0  0  0  0  0  0  0  0  0  0  0
    9.9693    0.3838   22.3049 O   0  0  0  0  0  0  0  0  0  0  0  0
    8.8913   -0.6389   20.0099 H   0  0  0  0  0  0  0  0  0  0  0  0
    6.7356   -0.1295   19.6378 C   0  0  0  0  0  0  0  0  0  0  0  0
    7.9092   -0.6006   20.3793 C   0  0  0  0  0  0  0  0  0  0  0  0
    6.7207    0.1530   17.5122 H   0  0  0  0  0  0  0  0  0  0  0  0
    6.6113    0.3199   18.4348 C   0  0  0  0  0  2  0  0  0  0  0  0
    4.6247    0.0669   20.0235 H   0  0  0  0  0  0  0  0  0  0  0  0
    5.5764   -0.1706   20.4244 C   0  0  0  0  0  0  0  0  0  0  0  0
    5.9188   -0.5515   21.9904 S   0  0  0  0  0  0  0  0  0  0  0  0
 20 21  1  0  0  0  0
 18 21  1  0  0  0  0
 18 19  1  0  0  0  0
 18 23  2  0  0  0  0
 17 19  1  0  0  0  0
 22 23  1  0  0  0  0
 15 19  2  0  0  0  0
 23 24  1  0  0  0  0
 15 24  1  0  0  0  0
 14 15  1  0  0  0  0
  6 16  1  0  0  0  0
 10 12  1  0  0  0  0
  6 14  2  0  0  0  0
  8 14  1  0  0  0  0
  6  7  1  0  0  0  0
  5  8  1  0  0  0  0
 10 11  1  0  0  0  0
 10 13  1  0  0  0  0
  9 10  1  0  0  0  0
  2  5  1  0  0  0  0
  2  3  1  0  0  0  0
  1  2  1  0  0  0  0
  2  4  1  0  0  0  0
M  END
> <Shapegauss>
-151.982864

$$$$
