stable:False satoms:20 tatoms:24 sratio:0.8333333333333334
  -OEChem-07092417373D

 24 24  0     0  0  0  0  0  0999 V2000
    7.1655   -4.7433   26.4168 H   0  0  0  0  0  0  0  0  0  0  0  0
    8.2109   -4.4713   26.1117 C   0  0  0  0  0  0  0  0  0  0  0  0
    8.8228   -5.4027   26.0675 H   0  0  0  0  0  0  0  0  0  0  0  0
    8.6525   -3.8226   26.8919 H   0  0  0  0  0  0  0  0  0  0  0  0
    8.1520   -3.8396   24.8372 N   0  0  0  0  0  0  0  0  0  0  0  0
    8.8282   -3.0848   24.1554 C   0  0  0  0  0  0  0  0  0  0  0  0
    9.2357   -2.2922   23.3923 N   0  0  0  0  0  0  0  0  0  0  0  0
   10.2203   -1.3734   23.0854 C   0  0  0  0  0  0  0  0  0  0  0  0
   11.5280    0.5406   23.5201 H   0  0  0  0  0  0  0  0  0  0  0  0
   12.8530   -0.2313   24.3716 H   0  0  0  0  0  0  0  0  0  0  0  0
   12.2258   -0.3171   23.5014 C   0  0  0  0  0  0  0  0  0  0  0  0
   12.8315   -0.4085   22.5854 H   0  0  0  0  0  0  0  0  0  0  0  0
   11.4524   -1.5251   23.5341 O   0  0  0  0  0  0  0  0  0  0  0  0
    9.9956   -0.4025   22.2925 N   0  0  0  0  0  0  0  0  0  0  0  0
    9.1155    0.0785   21.3941 C   0  0  0  0  0  0  0  0  0  0  0  0
    9.3626    1.1019   20.8003 O   0  0  0  0  0  0  0  0  0  0  0  0
    7.9604   -0.6724   21.2102 N   0  0  0  0  0  0  0  0  0  0  0  0
    7.0705   -0.0301   20.4150 C   0  0  0  0  0  0  0  0  0  0  0  0
    7.2148    0.2182   19.1257 C   0  0  0  0  0  0  0  0  0  0  0  0
    6.3233    0.7583   17.3075 H   0  0  0  0  0  0  0  0  0  0  0  0
    6.2883    0.6970   18.3812 C   0  0  0  0  0  0  0  0  0  0  0  0
    4.9842    1.1394   19.4622 S   0  0  0  0  0  0  0  0  0  0  0  0
    5.7657    0.4474   20.7265 C   0  0  0  0  0  0  0  0  0  0  0  0
    5.3247    0.3455   21.7108 H   0  0  0  0  0  0  0  0  0  0  0  0
 20 21  1  0  0  0  0
 19 21  2  0  0  0  0
 21 22  1  0  0  0  0
 18 19  1  0  0  0  0
 22 23  1  0  0  0  0
 18 23  2  0  0  0  0
 17 18  1  0  0  0  0
 23 24  1  0  0  0  0
 15 16  2  0  0  0  0
 15 17  1  0  0  0  0
 14 15  1  0  0  0  0
  8 14  2  0  0  0  0
 11 12  1  0  0  0  0
  7  8  1  0  0  0  0
  8 13  1  0  0  0  0
  6  7  2  0  0  0  0
  9 11  1  0  0  0  0
 11 13  1  0  0  0  0
 10 11  1  0  0  0  0
  5  6  1  0  0  0  0
  2  5  1  0  0  0  0
  2  3  1  0  0  0  0
  1  2  1  0  0  0  0
  2  4  1  0  0  0  0
M  END
> <Shapegauss>
-197.424088

$$$$
