stable:False satoms:20 tatoms:24 sratio:0.8333333333333334
  -OEChem-08062406393D

 30 30  0     0  0  0  0  0  0999 V2000
   13.6252   -1.1860   22.8758 H   0  0  0  0  0  0  0  0  0  0  0  0
   12.8941   -1.8198   23.4449 C   0  0  0  0  0  0  0  0  0  0  0  0
   13.0780   -1.6827   24.5364 H   0  0  0  0  0  0  0  0  0  0  0  0
   13.0855   -2.8838   23.2088 H   0  0  0  0  0  0  0  0  0  0  0  0
   11.5783   -1.4047   23.0940 N   0  0  0  0  0  0  0  0  0  0  0  0
   10.4419   -1.8523   23.1042 C   0  0  0  0  0  0  0  0  0  0  0  0
    9.3129   -2.1049   22.9091 N   0  3  0  0  0  0  0  0  0  0  0  0
    8.3036   -3.0454   22.9777 C   0  0  0  0  0  0  0  0  0  0  0  0
    7.3351   -5.1389   22.4861 H   0  0  0  0  0  0  0  0  0  0  0  0
    7.9377   -6.0402   23.8649 H   0  0  0  0  0  0  0  0  0  0  0  0
    7.4768   -5.1097   23.5824 C   0  0  0  0  0  0  0  0  0  0  0  0
    6.5614   -4.9284   24.1685 H   0  0  0  0  0  0  0  0  0  0  0  0
    8.3222   -3.9937   23.8957 O   0  0  0  0  0  0  0  0  0  0  0  0
    7.2833   -2.9778   22.2187 N   0  3  0  0  0  0  0  0  0  0  0  0
    6.6246   -2.1752   21.3613 C   0  0  0  0  0  0  0  0  0  0  0  0
    5.5829   -2.5451   20.8725 O   0  0  0  0  0  0  0  0  0  0  0  0
    7.2121   -0.9412   21.1080 N   0  0  0  0  0  0  0  0  0  0  0  0
    6.5672   -0.2767   20.1183 C   0  0  0  0  0  0  0  0  0  0  0  0
    5.3464    0.2236   20.1823 C   0  0  0  0  0  0  0  0  0  0  0  0
    3.9101    1.5184   19.3745 H   0  0  0  0  0  0  0  0  0  0  0  0
    4.8308    0.9702   19.2775 C   0  0  0  0  0  0  0  0  0  0  0  0
    5.9578    0.9491   17.9379 S   0  0  0  0  0  0  0  0  0  0  0  0
    7.0471    0.1161   18.8365 C   0  0  0  0  0  0  0  0  0  0  0  0
    8.0514   -0.1041   18.4948 H   0  0  0  0  0  0  0  0  0  0  0  0
   11.5870   -0.4723   22.7327 H   0  0  0  0  0  0  0  0  0  0  0  0
   10.5896   -2.5524   23.9132 H   0  0  0  0  0  0  0  0  0  0  0  0
    8.0108   -0.5879   21.5951 H   0  0  0  0  0  0  0  0  0  0  0  0
    4.7468   -0.0107   21.0494 H   0  0  0  0  0  0  0  0  0  0  0  0
    8.9015   -1.2780   22.5257 H   0  0  0  0  0  0  0  0  0  0  0  0
    6.7860   -3.8429   22.2836 H   0  0  0  0  0  0  0  0  0  0  0  0
 20 21  1  0  0  0  0
 19 21  2  0  0  0  0
 21 22  1  0  0  0  0
 18 19  1  0  0  0  0
 22 23  1  0  0  0  0
 18 23  2  0  0  0  0
 17 18  1  0  0  0  0
 23 24  1  0  0  0  0
 15 16  2  0  0  0  0
 15 17  1  0  0  0  0
 14 15  1  0  0  0  0
  8 14  2  0  0  0  0
 11 12  1  0  0  0  0
  7  8  1  0  0  0  0
  8 13  1  0  0  0  0
  6  7  2  0  0  0  0
  9 11  1  0  0  0  0
 11 13  1  0  0  0  0
 10 11  1  0  0  0  0
  5  6  1  0  0  0  0
  2  5  1  0  0  0  0
  2  3  1  0  0  0  0
  1  2  1  0  0  0  0
  2  4  1  0  0  0  0
  5 25  1  0  0  0  0
  6 26  1  0  0  0  0
 17 27  1  0  0  0  0
 19 28  1  0  0  0  0
  7 29  1  0  0  0  0
 14 30  1  0  0  0  0
M  CHG  2   7   1  14   1
M  END
> <Chemgauss4>
-6.330785

$$$$
