stable:False satoms:20 tatoms:24 sratio:0.8333333333333334
  -OEChem-08062406393D

 30 30  0     0  0  0  0  0  0999 V2000
  -13.6724   -1.0717  -22.8878 H   0  0  0  0  0  0  0  0  0  0  0  0
  -12.9414   -1.7055  -23.4569 C   0  0  0  0  0  0  0  0  0  0  0  0
  -13.1253   -1.5684  -24.5483 H   0  0  0  0  0  0  0  0  0  0  0  0
  -13.1328   -2.7695  -23.2207 H   0  0  0  0  0  0  0  0  0  0  0  0
  -11.6256   -1.2905  -23.1059 N   0  0  0  0  0  0  0  0  0  0  0  0
  -10.4892   -1.7380  -23.1162 C   0  0  0  0  0  0  0  0  0  0  0  0
   -9.3601   -1.9906  -22.9211 N   0  3  0  0  0  0  0  0  0  0  0  0
   -8.3509   -2.9311  -22.9896 C   0  0  0  0  0  0  0  0  0  0  0  0
   -7.3824   -5.0246  -22.4980 H   0  0  0  0  0  0  0  0  0  0  0  0
   -7.9849   -5.9259  -23.8768 H   0  0  0  0  0  0  0  0  0  0  0  0
   -7.5240   -4.9954  -23.5944 C   0  0  0  0  0  0  0  0  0  0  0  0
   -6.6087   -4.8142  -24.1805 H   0  0  0  0  0  0  0  0  0  0  0  0
   -8.3695   -3.8794  -23.9077 O   0  0  0  0  0  0  0  0  0  0  0  0
   -7.3305   -2.8635  -22.2306 N   0  3  0  0  0  0  0  0  0  0  0  0
   -6.6719   -2.0609  -21.3732 C   0  0  0  0  0  0  0  0  0  0  0  0
   -5.6301   -2.4309  -20.8845 O   0  0  0  0  0  0  0  0  0  0  0  0
   -7.2594   -0.8269  -21.1199 N   0  0  0  0  0  0  0  0  0  0  0  0
   -6.6145   -0.1625  -20.1302 C   0  0  0  0  0  0  0  0  0  0  0  0
   -5.3937    0.3379  -20.1942 C   0  0  0  0  0  0  0  0  0  0  0  0
   -3.9573    1.6327  -19.3865 H   0  0  0  0  0  0  0  0  0  0  0  0
   -4.8781    1.0845  -19.2894 C   0  0  0  0  0  0  0  0  0  0  0  0
   -6.0050    1.0634  -17.9498 S   0  0  0  0  0  0  0  0  0  0  0  0
   -7.0944    0.2303  -18.8484 C   0  0  0  0  0  0  0  0  0  0  0  0
   -8.0986    0.0102  -18.5068 H   0  0  0  0  0  0  0  0  0  0  0  0
  -11.6343   -0.3580  -22.7446 H   0  0  0  0  0  0  0  0  0  0  0  0
  -10.6369   -2.4381  -23.9251 H   0  0  0  0  0  0  0  0  0  0  0  0
   -8.0580   -0.4736  -21.6070 H   0  0  0  0  0  0  0  0  0  0  0  0
   -4.7941    0.1036  -21.0614 H   0  0  0  0  0  0  0  0  0  0  0  0
   -8.9488   -1.1637  -22.5377 H   0  0  0  0  0  0  0  0  0  0  0  0
   -6.8332   -3.7286  -22.2956 H   0  0  0  0  0  0  0  0  0  0  0  0
 20 21  1  0  0  0  0
 19 21  2  0  0  0  0
 21 22  1  0  0  0  0
 18 19  1  0  0  0  0
 22 23  1  0  0  0  0
 18 23  2  0  0  0  0
 17 18  1  0  0  0  0
 23 24  1  0  0  0  0
 15 16  2  0  0  0  0
 15 17  1  0  0  0  0
 14 15  1  0  0  0  0
  8 14  2  0  0  0  0
 11 12  1  0  0  0  0
  7  8  1  0  0  0  0
  8 13  1  0  0  0  0
  6  7  2  0  0  0  0
  9 11  1  0  0  0  0
 11 13  1  0  0  0  0
 10 11  1  0  0  0  0
  5  6  1  0  0  0  0
  2  5  1  0  0  0  0
  2  3  1  0  0  0  0
  1  2  1  0  0  0  0
  2  4  1  0  0  0  0
  5 25  1  0  0  0  0
  6 26  1  0  0  0  0
 17 27  1  0  0  0  0
 19 28  1  0  0  0  0
  7 29  1  0  0  0  0
 14 30  1  0  0  0  0
M  CHG  2   7   1  14   1
M  END
> <Chemgauss4>
-6.325985

$$$$
