MODEL 1
REMARK VINA RESULT:    -5.895      0.000      0.000
REMARK INTER + INTRA:          -7.656
REMARK INTER:                  -6.929
REMARK INTRA:                  -0.727
REMARK UNBOUND:                -0.727
REMARK  3 active torsions:
REMARK  status: ('A' for Active; 'I' for Inactive)
REMARK    1  A    between atoms: C_1  and  C_10 
REMARK    2  A    between atoms: C_6  and  C_10 
REMARK    3  A    between atoms: N_8  and  C_12 
ROOT
HETATM    1  C   UNL     1      10.327  16.470   4.345  1.00  0.00     0.088 C 
HETATM    2  N   UNL     1       9.989  17.115   3.265  1.00  0.00    -0.366 N 
HETATM    3  C   UNL     1       8.597  17.468   3.051  1.00  0.00     0.055 C 
HETATM    4  H   UNL     1      10.557  17.451   2.516  1.00  0.00     0.165 HD
HETATM    5  N   UNL     1       8.618  14.882   3.158  1.00  0.00    -0.196 N 
HETATM    6  C   UNL     1       7.738  16.801   3.977  1.00  0.00     0.137 C 
HETATM    7  N   UNL     1       8.054  15.543   4.140  1.00  0.00    -0.298 N 
ATOM      8  HN  UNL     1       7.863  15.077   5.028  1.00  0.00     0.186 HD
HETATM    9  O   UNL     1       8.783  12.495   3.399  1.00  0.00    -0.236 OA
HETATM   10  C   UNL     1      11.016  15.096   4.414  1.00  0.00     0.225 C 
HETATM   11  C   UNL     1       9.254  13.561   3.658  1.00  0.00     0.387 C 
HETATM   12  O   UNL     1      10.267  13.880   4.377  1.00  0.00    -0.297 OA
ENDROOT
BRANCH   3  13
HETATM   13  C   UNL     1       8.119  18.191   2.041  1.00  0.00     0.115 C 
BRANCH  13  14
HETATM   14  C   UNL     1       8.771  18.198   0.620  1.00  0.00     0.200 C 
HETATM   15  O   UNL     1       8.017  18.357  -0.327  1.00  0.00    -0.644 OA
HETATM   16  O   UNL     1      10.003  18.058   0.559  1.00  0.00    -0.644 OA
ENDBRANCH  13  14
ENDBRANCH   3  13
BRANCH   5  17
HETATM   17  C   UNL     1       8.858  14.750   1.787  1.00  0.00     0.205 C 
HETATM   18  N   UNL     1       8.244  14.198   0.866  1.00  0.00    -0.394 N 
HETATM   19  H   UNL     1       8.033  13.223   0.722  1.00  0.00     0.156 HD
ATOM     20  HN  UNL     1       7.899  14.826   0.140  1.00  0.00     0.156 HD
ENDBRANCH   5  17
TORSDOF 3
ENDMDL
MODEL 2
REMARK VINA RESULT:    -5.548     23.974     25.819
REMARK INTER + INTRA:          -7.248
REMARK INTER:                  -6.239
REMARK INTRA:                  -1.009
REMARK UNBOUND:                -0.727
REMARK  3 active torsions:
REMARK  status: ('A' for Active; 'I' for Inactive)
REMARK    1  A    between atoms: C_1  and  C_10 
REMARK    2  A    between atoms: C_6  and  C_10 
REMARK    3  A    between atoms: N_8  and  C_12 
ROOT
HETATM    1  C   UNL     1       8.493   0.682  24.539  1.00  0.00     0.088 C 
HETATM    2  N   UNL     1       9.739   0.307  24.470  1.00  0.00    -0.366 N 
HETATM    3  C   UNL     1      10.760   1.283  24.137  1.00  0.00     0.055 C 
HETATM    4  H   UNL     1      10.147  -0.589  24.636  1.00  0.00     0.165 HD
HETATM    5  N   UNL     1       9.192   1.232  22.078  1.00  0.00    -0.196 N 
HETATM    6  C   UNL     1      10.187   2.503  23.667  1.00  0.00     0.137 C 
HETATM    7  N   UNL     1       9.201   2.307  22.830  1.00  0.00    -0.298 N 
ATOM      8  HN  UNL     1       8.443   2.986  22.761  1.00  0.00     0.186 HD
HETATM    9  O   UNL     1       7.581   1.159  20.295  1.00  0.00    -0.236 OA
HETATM   10  C   UNL     1       7.322   0.129  23.708  1.00  0.00     0.225 C 
HETATM   11  C   UNL     1       7.794   0.990  21.457  1.00  0.00     0.387 C 
HETATM   12  O   UNL     1       7.012   0.648  22.414  1.00  0.00    -0.297 OA
ENDROOT
BRANCH   3  13
HETATM   13  C   UNL     1      12.073   1.063  24.109  1.00  0.00     0.115 C 
BRANCH  13  14
HETATM   14  C   UNL     1      12.693  -0.371  24.102  1.00  0.00     0.200 C 
HETATM   15  O   UNL     1      13.757  -0.510  24.683  1.00  0.00    -0.644 OA
HETATM   16  O   UNL     1      12.053  -1.264  23.523  1.00  0.00    -0.644 OA
ENDBRANCH  13  14
ENDBRANCH   3  13
BRANCH   5  17
HETATM   17  C   UNL     1       9.900   0.193  21.467  1.00  0.00     0.205 C 
HETATM   18  N   UNL     1       9.696  -1.021  21.350  1.00  0.00    -0.394 N 
HETATM   19  H   UNL     1       9.641  -1.739  22.056  1.00  0.00     0.156 HD
ATOM     20  HN  UNL     1       9.563  -1.346  20.392  1.00  0.00     0.156 HD
ENDBRANCH   5  17
TORSDOF 3
ENDMDL
MODEL 3
REMARK VINA RESULT:    -5.397     23.560     25.609
REMARK INTER + INTRA:          -7.071
REMARK INTER:                  -6.226
REMARK INTRA:                  -0.845
REMARK UNBOUND:                -0.727
REMARK  3 active torsions:
REMARK  status: ('A' for Active; 'I' for Inactive)
REMARK    1  A    between atoms: C_1  and  C_10 
REMARK    2  A    between atoms: C_6  and  C_10 
REMARK    3  A    between atoms: N_8  and  C_12 
ROOT
HETATM    1  C   UNL     1       9.957  -0.203  21.702  1.00  0.00     0.088 C 
HETATM    2  N   UNL     1       9.011  -0.591  20.894  1.00  0.00    -0.366 N 
HETATM    3  C   UNL     1       7.664  -0.081  21.077  1.00  0.00     0.055 C 
HETATM    4  H   UNL     1       9.053  -1.201  20.105  1.00  0.00     0.165 HD
HETATM    5  N   UNL     1       8.202  -1.345  23.272  1.00  0.00    -0.196 N 
HETATM    6  C   UNL     1       7.525   0.598  22.326  1.00  0.00     0.137 C 
HETATM    7  N   UNL     1       8.102  -0.038  23.313  1.00  0.00    -0.298 N 
ATOM      8  HN  UNL     1       8.471   0.480  24.110  1.00  0.00     0.186 HD
HETATM    9  O   UNL     1       8.893  -2.451  25.292  1.00  0.00    -0.236 OA
HETATM   10  C   UNL     1      10.821  -1.105  22.599  1.00  0.00     0.225 C 
HETATM   11  C   UNL     1       9.229  -1.865  24.308  1.00  0.00     0.387 C 
HETATM   12  O   UNL     1      10.389  -1.499  23.903  1.00  0.00    -0.297 OA
ENDROOT
BRANCH   3  13
HETATM   13  C   UNL     1       6.621  -0.324  20.287  1.00  0.00     0.115 C 
BRANCH  13  14
HETATM   14  C   UNL     1       6.637  -0.039  18.750  1.00  0.00     0.200 C 
HETATM   15  O   UNL     1       5.776  -0.591  18.083  1.00  0.00    -0.644 OA
HETATM   16  O   UNL     1       7.508   0.736  18.325  1.00  0.00    -0.644 OA
ENDBRANCH  13  14
ENDBRANCH   3  13
BRANCH   5  17
HETATM   17  C   UNL     1       7.737  -2.566  22.774  1.00  0.00     0.205 C 
HETATM   18  N   UNL     1       8.281  -3.653  22.544  1.00  0.00    -0.394 N 
HETATM   19  H   UNL     1       9.007  -3.886  21.885  1.00  0.00     0.156 HD
ATOM     20  HN  UNL     1       7.942  -4.432  23.108  1.00  0.00     0.156 HD
ENDBRANCH   5  17
TORSDOF 3
ENDMDL
MODEL 4
REMARK VINA RESULT:    -5.382     24.412     26.767
REMARK INTER + INTRA:          -7.052
REMARK INTER:                  -6.184
REMARK INTRA:                  -0.868
REMARK UNBOUND:                -0.727
REMARK  3 active torsions:
REMARK  status: ('A' for Active; 'I' for Inactive)
REMARK    1  A    between atoms: C_1  and  C_10 
REMARK    2  A    between atoms: C_6  and  C_10 
REMARK    3  A    between atoms: N_8  and  C_12 
ROOT
HETATM    1  C   UNL     1       9.748   0.633  23.393  1.00  0.00     0.088 C 
HETATM    2  N   UNL     1       9.076  -0.269  24.051  1.00  0.00    -0.366 N 
HETATM    3  C   UNL     1       9.421  -1.669  23.896  1.00  0.00     0.055 C 
HETATM    4  H   UNL     1       8.328  -0.159  24.703  1.00  0.00     0.165 HD
HETATM    5  N   UNL     1       8.723  -0.891  21.528  1.00  0.00    -0.196 N 
HETATM    6  C   UNL     1      10.317  -1.872  22.803  1.00  0.00     0.137 C 
HETATM    7  N   UNL     1       9.984  -1.181  21.743  1.00  0.00    -0.298 N 
ATOM      8  HN  UNL     1      10.701  -0.868  21.088  1.00  0.00     0.186 HD
HETATM    9  O   UNL     1       8.163   0.012  19.371  1.00  0.00    -0.236 OA
HETATM   10  C   UNL     1       9.178   1.645  22.384  1.00  0.00     0.225 C 
HETATM   11  C   UNL     1       8.575   0.231  20.469  1.00  0.00     0.387 C 
HETATM   12  O   UNL     1       9.006   1.313  21.005  1.00  0.00    -0.297 OA
ENDROOT
BRANCH   3  13
HETATM   13  C   UNL     1       8.879  -2.687  24.560  1.00  0.00     0.115 C 
BRANCH  13  14
HETATM   14  C   UNL     1       8.513  -2.611  26.078  1.00  0.00     0.200 C 
HETATM   15  O   UNL     1       8.220  -3.663  26.624  1.00  0.00    -0.644 OA
HETATM   16  O   UNL     1       8.564  -1.495  26.619  1.00  0.00    -0.644 OA
ENDBRANCH  13  14
ENDBRANCH   3  13
BRANCH   5  17
HETATM   17  C   UNL     1       7.374  -1.185  21.744  1.00  0.00     0.205 C 
HETATM   18  N   UNL     1       6.339  -0.507  21.706  1.00  0.00    -0.394 N 
HETATM   19  H   UNL     1       6.057   0.274  22.277  1.00  0.00     0.156 HD
ATOM     20  HN  UNL     1       5.670  -0.782  20.987  1.00  0.00     0.156 HD
ENDBRANCH   5  17
TORSDOF 3
ENDMDL
MODEL 5
REMARK VINA RESULT:    -5.333     25.475     26.834
REMARK INTER + INTRA:          -6.996
REMARK INTER:                  -6.079
REMARK INTRA:                  -0.917
REMARK UNBOUND:                -0.727
REMARK  3 active torsions:
REMARK  status: ('A' for Active; 'I' for Inactive)
REMARK    1  A    between atoms: C_1  and  C_10 
REMARK    2  A    between atoms: C_6  and  C_10 
REMARK    3  A    between atoms: N_8  and  C_12 
ROOT
HETATM    1  C   UNL     1       9.549   1.704  23.949  1.00  0.00     0.088 C 
HETATM    2  N   UNL     1       8.829   0.732  23.464  1.00  0.00    -0.366 N 
HETATM    3  C   UNL     1       8.373  -0.327  24.347  1.00  0.00     0.055 C 
HETATM    4  H   UNL     1       8.494   0.585  22.535  1.00  0.00     0.165 HD
HETATM    5  N   UNL     1      10.957  -0.446  24.443  1.00  0.00    -0.196 N 
HETATM    6  C   UNL     1       9.028  -0.271  25.615  1.00  0.00     0.137 C 
HETATM    7  N   UNL     1      10.311  -0.042  25.510  1.00  0.00    -0.298 N 
ATOM      8  HN  UNL     1      10.807   0.448  26.254  1.00  0.00     0.186 HD
HETATM    9  O   UNL     1      13.359  -0.354  24.520  1.00  0.00    -0.236 OA
HETATM   10  C   UNL     1      10.967   2.102  23.505  1.00  0.00     0.225 C 
HETATM   11  C   UNL     1      12.342   0.240  24.328  1.00  0.00     0.387 C 
HETATM   12  O   UNL     1      12.127   1.474  24.054  1.00  0.00    -0.297 OA
ENDROOT
BRANCH   3  13
HETATM   13  C   UNL     1       7.570  -1.334  24.012  1.00  0.00     0.115 C 
BRANCH  13  14
HETATM   14  C   UNL     1       7.558  -1.970  22.584  1.00  0.00     0.200 C 
HETATM   15  O   UNL     1       7.256  -1.232  21.659  1.00  0.00    -0.644 OA
HETATM   16  O   UNL     1       7.870  -3.168  22.493  1.00  0.00    -0.644 OA
ENDBRANCH  13  14
ENDBRANCH   3  13
BRANCH   5  17
HETATM   17  C   UNL     1      11.036  -1.311  23.347  1.00  0.00     0.205 C 
HETATM   18  N   UNL     1      11.389  -1.163  22.171  1.00  0.00    -0.394 N 
HETATM   19  H   UNL     1      10.988  -0.593  21.442  1.00  0.00     0.156 HD
ATOM     20  HN  UNL     1      12.212  -1.699  21.897  1.00  0.00     0.156 HD
ENDBRANCH   5  17
TORSDOF 3
ENDMDL
MODEL 6
REMARK VINA RESULT:    -5.267     24.621     26.478
REMARK INTER + INTRA:          -6.918
REMARK INTER:                  -5.913
REMARK INTRA:                  -1.005
REMARK UNBOUND:                -0.727
REMARK  3 active torsions:
REMARK  status: ('A' for Active; 'I' for Inactive)
REMARK    1  A    between atoms: C_1  and  C_10 
REMARK    2  A    between atoms: C_6  and  C_10 
REMARK    3  A    between atoms: N_8  and  C_12 
ROOT
HETATM    1  C   UNL     1       9.300   0.500  21.446  1.00  0.00     0.088 C 
HETATM    2  N   UNL     1      10.379   0.363  22.165  1.00  0.00    -0.366 N 
HETATM    3  C   UNL     1      10.733  -0.949  22.675  1.00  0.00     0.055 C 
HETATM    4  H   UNL     1      11.063   1.040  22.428  1.00  0.00     0.165 HD
HETATM    5  N   UNL     1       8.432  -0.422  23.737  1.00  0.00    -0.196 N 
HETATM    6  C   UNL     1       9.662  -1.881  22.518  1.00  0.00     0.137 C 
HETATM    7  N   UNL     1       8.500  -1.370  22.834  1.00  0.00    -0.298 N 
ATOM      8  HN  UNL     1       7.651  -1.709  22.381  1.00  0.00     0.186 HD
HETATM    9  O   UNL     1       6.244   0.160  24.548  1.00  0.00    -0.236 OA
HETATM   10  C   UNL     1       8.100   1.410  21.761  1.00  0.00     0.225 C 
HETATM   11  C   UNL     1       7.063   0.303  23.692  1.00  0.00     0.387 C 
HETATM   12  O   UNL     1       7.030   0.975  22.600  1.00  0.00    -0.297 OA
ENDROOT
BRANCH   3  13
HETATM   13  C   UNL     1      11.839  -1.253  23.350  1.00  0.00     0.115 C 
BRANCH  13  14
HETATM   14  C   UNL     1      12.672  -0.190  24.136  1.00  0.00     0.200 C 
HETATM   15  O   UNL     1      13.766  -0.546  24.545  1.00  0.00    -0.644 OA
HETATM   16  O   UNL     1      12.172   0.938  24.272  1.00  0.00    -0.644 OA
ENDBRANCH  13  14
ENDBRANCH   3  13
BRANCH   5  17
HETATM   17  C   UNL     1       9.001   0.227  24.837  1.00  0.00     0.205 C 
HETATM   18  N   UNL     1       9.089   1.414  25.172  1.00  0.00    -0.394 N 
HETATM   19  H   UNL     1       9.568   2.179  24.723  1.00  0.00     0.156 HD
ATOM     20  HN  UNL     1       8.601   1.656  26.035  1.00  0.00     0.156 HD
ENDBRANCH   5  17
TORSDOF 3
ENDMDL
MODEL 7
REMARK VINA RESULT:    -5.253     25.469     27.268
REMARK INTER + INTRA:          -6.902
REMARK INTER:                  -5.942
REMARK INTRA:                  -0.960
REMARK UNBOUND:                -0.727
REMARK  3 active torsions:
REMARK  status: ('A' for Active; 'I' for Inactive)
REMARK    1  A    between atoms: C_1  and  C_10 
REMARK    2  A    between atoms: C_6  and  C_10 
REMARK    3  A    between atoms: N_8  and  C_12 
ROOT
HETATM    1  C   UNL     1      11.666  -1.485  22.842  1.00  0.00     0.088 C 
HETATM    2  N   UNL     1      10.602  -2.161  23.173  1.00  0.00    -0.366 N 
HETATM    3  C   UNL     1       9.364  -1.939  22.449  1.00  0.00     0.055 C 
HETATM    4  H   UNL     1      10.483  -2.867  23.869  1.00  0.00     0.165 HD
HETATM    5  N   UNL     1       9.928   0.349  23.521  1.00  0.00    -0.196 N 
HETATM    6  C   UNL     1       9.441  -0.780  21.619  1.00  0.00     0.137 C 
HETATM    7  N   UNL     1      10.015   0.232  22.217  1.00  0.00    -0.298 N 
ATOM      8  HN  UNL     1      10.528   0.925  21.674  1.00  0.00     0.186 HD
HETATM    9  O   UNL     1      10.648   2.433  24.480  1.00  0.00    -0.236 OA
HETATM   10  C   UNL     1      12.478  -0.551  23.755  1.00  0.00     0.225 C 
HETATM   11  C   UNL     1      10.967   1.360  24.067  1.00  0.00     0.387 C 
HETATM   12  O   UNL     1      12.123   0.822  23.928  1.00  0.00    -0.297 OA
ENDROOT
BRANCH   3  13
HETATM   13  C   UNL     1       8.226  -2.608  22.622  1.00  0.00     0.115 C 
BRANCH  13  14
HETATM   14  C   UNL     1       8.060  -3.738  23.689  1.00  0.00     0.200 C 
HETATM   15  O   UNL     1       8.495  -3.503  24.806  1.00  0.00    -0.644 OA
HETATM   16  O   UNL     1       7.486  -4.779  23.330  1.00  0.00    -0.644 OA
ENDBRANCH  13  14
ENDBRANCH   3  13
BRANCH   5  17
HETATM   17  C   UNL     1       9.252   0.048  24.707  1.00  0.00     0.205 C 
HETATM   18  N   UNL     1       9.600  -0.012  25.892  1.00  0.00    -0.394 N 
HETATM   19  H   UNL     1      10.258  -0.629  26.342  1.00  0.00     0.156 HD
ATOM     20  HN  UNL     1       9.153   0.667  26.509  1.00  0.00     0.156 HD
ENDBRANCH   5  17
TORSDOF 3
ENDMDL
MODEL 8
REMARK VINA RESULT:    -5.209     28.082     30.269
REMARK INTER + INTRA:          -6.850
REMARK INTER:                  -5.877
REMARK INTRA:                  -0.972
REMARK UNBOUND:                -0.727
REMARK  3 active torsions:
REMARK  status: ('A' for Active; 'I' for Inactive)
REMARK    1  A    between atoms: C_1  and  C_10 
REMARK    2  A    between atoms: C_6  and  C_10 
REMARK    3  A    between atoms: N_8  and  C_12 
ROOT
HETATM    1  C   UNL     1       6.334  -2.948  23.835  1.00  0.00     0.088 C 
HETATM    2  N   UNL     1       6.382  -3.750  24.861  1.00  0.00    -0.366 N 
HETATM    3  C   UNL     1       7.581  -4.532  25.099  1.00  0.00     0.055 C 
HETATM    4  H   UNL     1       5.703  -3.919  25.573  1.00  0.00     0.165 HD
HETATM    5  N   UNL     1       6.727  -5.312  22.783  1.00  0.00    -0.196 N 
HETATM    6  C   UNL     1       8.466  -4.491  23.979  1.00  0.00     0.137 C 
HETATM    7  N   UNL     1       7.840  -4.622  22.837  1.00  0.00    -0.298 N 
ATOM      8  HN  UNL     1       8.217  -4.189  21.994  1.00  0.00     0.186 HD
HETATM    9  O   UNL     1       5.876  -5.843  20.598  1.00  0.00    -0.236 OA
HETATM   10  C   UNL     1       5.316  -2.994  22.683  1.00  0.00     0.225 C 
HETATM   11  C   UNL     1       5.954  -5.033  21.470  1.00  0.00     0.387 C 
HETATM   12  O   UNL     1       5.515  -3.830  21.541  1.00  0.00    -0.297 OA
ENDROOT
BRANCH   3  13
HETATM   13  C   UNL     1       7.802  -5.327  26.143  1.00  0.00     0.115 C 
BRANCH  13  14
HETATM   14  C   UNL     1       6.714  -5.632  27.223  1.00  0.00     0.200 C 
HETATM   15  O   UNL     1       7.063  -5.550  28.390  1.00  0.00    -0.644 OA
HETATM   16  O   UNL     1       5.575  -5.917  26.817  1.00  0.00    -0.644 OA
ENDBRANCH  13  14
ENDBRANCH   3  13
BRANCH   5  17
HETATM   17  C   UNL     1       5.901  -6.297  23.333  1.00  0.00     0.205 C 
HETATM   18  N   UNL     1       4.680  -6.493  23.311  1.00  0.00    -0.394 N 
HETATM   19  H   UNL     1       3.929  -5.934  23.686  1.00  0.00     0.156 HD
ATOM     20  HN  UNL     1       4.388  -7.351  22.843  1.00  0.00     0.156 HD
ENDBRANCH   5  17
TORSDOF 3
ENDMDL
MODEL 9
REMARK VINA RESULT:    -5.093     23.675     25.130
REMARK INTER + INTRA:          -6.713
REMARK INTER:                  -5.964
REMARK INTRA:                  -0.749
REMARK UNBOUND:                -0.727
REMARK  3 active torsions:
REMARK  status: ('A' for Active; 'I' for Inactive)
REMARK    1  A    between atoms: C_1  and  C_10 
REMARK    2  A    between atoms: C_6  and  C_10 
REMARK    3  A    between atoms: N_8  and  C_12 
ROOT
HETATM    1  C   UNL     1       9.606   2.987  23.250  1.00  0.00     0.088 C 
HETATM    2  N   UNL     1       8.975   2.283  22.352  1.00  0.00    -0.366 N 
HETATM    3  C   UNL     1       8.132   1.181  22.775  1.00  0.00     0.055 C 
HETATM    4  H   UNL     1       8.951   2.387  21.360  1.00  0.00     0.165 HD
HETATM    5  N   UNL     1      10.506   0.554  23.595  1.00  0.00    -0.196 N 
HETATM    6  C   UNL     1       8.334   0.863  24.153  1.00  0.00     0.137 C 
HETATM    7  N   UNL     1       9.598   0.859  24.489  1.00  0.00    -0.298 N 
ATOM      8  HN  UNL     1       9.875   1.092  25.442  1.00  0.00     0.186 HD
HETATM    9  O   UNL     1      12.741   0.170  24.394  1.00  0.00    -0.236 OA
HETATM   10  C   UNL     1      11.128   3.186  23.354  1.00  0.00     0.225 C 
HETATM   11  C   UNL     1      11.923   0.972  24.063  1.00  0.00     0.387 C 
HETATM   12  O   UNL     1      11.959   2.254  24.049  1.00  0.00    -0.297 OA
ENDROOT
BRANCH   3  13
HETATM   13  C   UNL     1       7.370   0.430  21.983  1.00  0.00     0.115 C 
BRANCH  13  14
HETATM   14  C   UNL     1       7.496   0.442  20.425  1.00  0.00     0.200 C 
HETATM   15  O   UNL     1       8.580   0.121  19.962  1.00  0.00    -0.644 OA
HETATM   16  O   UNL     1       6.487   0.759  19.776  1.00  0.00    -0.644 OA
ENDBRANCH  13  14
ENDBRANCH   3  13
BRANCH   5  17
HETATM   17  C   UNL     1      10.838  -0.080  22.394  1.00  0.00     0.205 C 
HETATM   18  N   UNL     1      10.789  -1.255  22.010  1.00  0.00    -0.394 N 
HETATM   19  H   UNL     1      11.285  -2.066  22.347  1.00  0.00     0.156 HD
ATOM     20  HN  UNL     1      10.149  -1.431  21.236  1.00  0.00     0.156 HD
ENDBRANCH   5  17
TORSDOF 3
ENDMDL
