stable:False satoms:8 tatoms:24 sratio:0.3333333333333333
  -OEChem-07092417443D

 24 25  0     1  0  0  0  0  0999 V2000
    6.5889   -4.8416   26.3930 C   0  0  0  0  0  0  0  0  0  0  0  0
    8.1806   -4.3065   26.1141 S   0  0  0  0  0  0  0  0  0  0  0  0
    9.0353   -5.4707   26.0017 O   0  0  0  0  0  0  0  0  0  0  0  0
    8.6333   -3.4473   27.1828 O   0  0  0  0  0  0  0  0  0  0  0  0
    8.1021   -3.5724   24.6843 N   0  0  0  0  0  0  0  0  0  0  0  0
    8.9231   -2.8690   24.1705 C   0  0  0  0  0  0  0  0  0  0  0  0
    9.4110   -2.0062   23.5925 C   0  0  0  0  0  0  0  0  0  0  0  0
   10.3628   -1.1570   23.2486 C   0  0  1  0  0  0  0  0  0  0  0  0
   11.0629   -0.0175   24.2369 C   0  0  0  0  0  0  0  0  0  0  0  0
   12.1437    0.2795   24.2225 C   0  0  0  0  0  0  0  0  0  0  0  0
   13.1502   -0.2746   23.4180 C   0  0  0  0  0  0  0  0  0  0  0  0
   12.7660   -1.2002   22.6812 C   0  0  0  0  0  0  0  0  0  0  0  0
   11.7725   -1.7069   22.5052 C   0  0  0  0  0  0  0  0  0  0  0  0
    9.7227   -0.5964   22.3726 C   0  0  0  0  0  0  0  0  0  0  0  0
    9.0459    0.0392   21.4375 C   0  0  0  0  0  0  0  0  0  0  0  0
    9.5496    0.9951   21.0770 O   0  0  0  0  0  0  0  0  0  0  0  0
    7.9114   -0.5775   21.1051 N   0  0  0  0  0  0  0  0  0  0  0  0
    7.2077   -0.0804   20.1901 C   0  0  0  0  0  0  0  0  0  0  0  0
    7.2127    0.0414   18.8605 C   0  0  0  0  0  0  0  0  0  0  0  0
    6.8381    0.3720   17.7619 N   0  0  0  0  0  0  0  0  0  0  0  0
    5.6488    0.9039   18.2559 C   0  0  0  0  0  0  0  0  0  0  0  0
    5.2751    0.9705   19.3504 C   0  0  0  0  0  0  0  0  0  0  0  0
    5.8114    0.5576   20.5036 C   0  0  0  0  0  0  0  0  0  0  0  0
    5.2279    0.6748   21.9309 Cl  0  0  0  0  0  0  0  0  0  0  0  0
 20 21  2  0  0  0  0
 19 20  1  0  0  0  0
 21 22  1  0  0  0  0
 18 19  2  0  0  0  0
 22 23  2  0  0  0  0
 18 23  1  0  0  0  0
 17 18  1  0  0  0  0
 23 24  1  0  0  0  0
 15 16  2  0  0  0  0
 15 17  1  0  0  0  0
 14 15  1  0  0  0  0
  8 14  1  0  0  0  0
 12 13  1  0  0  0  0
  8 13  1  0  0  0  0
 11 12  2  0  0  0  0
  7  8  1  0  0  0  0
  8  9  1  0  0  0  0
 10 11  1  0  0  0  0
  6  7  3  0  0  0  0
  5  6  1  0  0  0  0
  9 10  2  0  0  0  0
  2  5  1  0  0  0  0
  2  3  2  0  0  0  0
  1  2  1  0  0  0  0
  2  4  2  0  0  0  0
M  END
> <Shapegauss>
-286.530731

$$$$
