stable:False satoms:8 tatoms:24 sratio:0.3333333333333333
  -OEChem-08062413463D

 40 41  0     1  0  0  0  0  0999 V2000
    6.1140   -5.4197   25.9571 C   0  0  0  0  0  0  0  0  0  0  0  0
    7.7212   -4.8631   25.8894 S   0  0  0  0  0  0  0  0  0  0  0  0
    8.5932   -6.0139   25.7722 O   0  0  0  0  0  0  0  0  0  0  0  0
    8.0533   -4.0939   27.0656 O   0  0  0  0  0  0  0  0  0  0  0  0
    7.7847   -4.0146   24.5236 N   0  0  0  0  0  0  0  0  0  0  0  0
    8.6482   -3.2713   24.1567 C   0  0  0  0  0  0  0  0  0  0  0  0
    9.1856   -2.3640   23.7045 C   0  0  0  0  0  0  0  0  0  0  0  0
   10.1604   -1.4892   23.5315 C   0  0  1  0  0  0  0  0  0  0  0  0
   10.7443   -0.4340   24.6764 C   0  0  0  0  0  0  0  0  0  0  0  0
   11.8181   -0.1364   24.7985 C   0  0  0  0  0  0  0  0  0  0  0  0
   12.9073   -0.6226   24.0606 C   0  0  0  0  0  0  0  0  0  0  0  0
   12.6097   -1.4850   23.2151 C   0  0  0  0  0  0  0  0  0  0  0  0
   11.6442   -1.9760   22.8963 C   0  0  0  0  0  0  0  0  0  0  0  0
    9.6094   -0.8591   22.6422 C   0  0  0  0  0  0  0  0  0  0  0  0
    9.0274   -0.1494   21.6966 C   0  0  0  0  0  0  0  0  0  0  0  0
    9.5573    0.8329   21.4692 O   0  0  0  0  0  0  0  0  0  0  0  0
    7.9389   -0.7373   21.1991 N   0  0  0  0  0  0  0  0  0  0  0  0
    7.3293   -0.1673   20.2594 C   0  0  0  0  0  0  0  0  0  0  0  0
    7.4708    0.0627   18.9518 C   0  0  0  0  0  0  0  0  0  0  0  0
    7.2090    0.4818   17.8508 N   0  0  0  0  0  0  0  0  0  0  0  0
    5.9704    0.9712   18.2601 C   0  0  0  0  0  0  0  0  0  0  0  0
    5.4848    0.9480   19.3117 C   0  0  0  0  0  0  0  0  0  0  0  0
    5.9025    0.4424   20.4770 C   0  0  0  0  0  0  0  0  0  0  0  0
    5.1734    0.4424   21.8407 Cl  0  0  0  0  0  0  0  0  0  0  0  0
    5.9709   -6.0184   26.8687 H   0  0  0  0  0  0  0  0  0  0  0  0
    5.4285   -4.5596   25.9720 H   0  0  0  0  0  0  0  0  0  0  0  0
    5.9038   -6.0409   25.0739 H   0  0  0  0  0  0  0  0  0  0  0  0
    6.9565   -3.4542   24.5352 H   0  0  0  0  0  0  0  0  0  0  0  0
   10.0294    0.0008   25.3593 H   0  0  0  0  0  0  0  0  0  0  0  0
   12.0357    0.5977   25.5602 H   0  0  0  0  0  0  0  0  0  0  0  0
   13.9191   -0.2772   24.2136 H   0  0  0  0  0  0  0  0  0  0  0  0
   13.4655   -1.8442   22.6629 H   0  0  0  0  0  0  0  0  0  0  0  0
   11.5739   -1.8450   21.8064 H   0  0  0  0  0  0  0  0  0  0  0  0
   11.7471   -3.0457   23.1312 H   0  0  0  0  0  0  0  0  0  0  0  0
    8.6462   -1.3251   22.8971 H   0  0  0  0  0  0  0  0  0  0  0  0
   10.1214   -1.4676   21.8822 H   0  0  0  0  0  0  0  0  0  0  0  0
    7.6156   -1.6101   21.5647 H   0  0  0  0  0  0  0  0  0  0  0  0
    8.4050   -0.4435   18.7580 H   0  0  0  0  0  0  0  0  0  0  0  0
    5.3786    1.4387   17.4870 H   0  0  0  0  0  0  0  0  0  0  0  0
    4.5157    1.4223   19.3597 H   0  0  0  0  0  0  0  0  0  0  0  0
 20 21  2  0  0  0  0
 19 20  1  0  0  0  0
 21 22  1  0  0  0  0
 18 19  2  0  0  0  0
 22 23  2  0  0  0  0
 18 23  1  0  0  0  0
 17 18  1  0  0  0  0
 23 24  1  0  0  0  0
 15 16  2  0  0  0  0
 15 17  1  0  0  0  0
 14 15  1  0  0  0  0
  8 14  1  0  0  0  0
 12 13  1  0  0  0  0
  8 13  1  0  0  0  0
 11 12  2  0  0  0  0
  7  8  1  0  0  0  0
  8  9  1  0  0  0  0
 10 11  1  0  0  0  0
  6  7  3  0  0  0  0
  5  6  1  0  0  0  0
  9 10  2  0  0  0  0
  2  5  1  0  0  0  0
  2  3  2  0  0  0  0
  1  2  1  0  0  0  0
  2  4  2  0  0  0  0
  1 25  1  0  0  0  0
  1 26  1  0  0  0  0
  1 27  1  0  0  0  0
  5 28  1  0  0  0  0
  9 29  1  0  0  0  0
 10 30  1  0  0  0  0
 11 31  1  0  0  0  0
 12 32  1  0  0  0  0
 13 33  1  0  0  0  0
 13 34  1  0  0  0  0
 14 35  1  0  0  0  0
 14 36  1  0  0  0  0
 17 37  1  0  0  0  0
 19 38  1  0  0  0  0
 21 39  1  0  0  0  0
 22 40  1  0  0  0  0
M  END
> <Chemgauss4>
-12.612020

$$$$
