stable:False satoms:8 tatoms:24 sratio:0.3333333333333333
  -OEChem-08062413463D

 40 41  0     1  0  0  0  0  0999 V2000
   -6.1705   -5.2783  -25.8901 C   0  0  0  0  0  0  0  0  0  0  0  0
   -7.7777   -4.7217  -25.8224 S   0  0  0  0  0  0  0  0  0  0  0  0
   -8.6497   -5.8725  -25.7052 O   0  0  0  0  0  0  0  0  0  0  0  0
   -8.1098   -3.9525  -26.9986 O   0  0  0  0  0  0  0  0  0  0  0  0
   -7.8411   -3.8732  -24.4566 N   0  0  0  0  0  0  0  0  0  0  0  0
   -8.7046   -3.1299  -24.0897 C   0  0  0  0  0  0  0  0  0  0  0  0
   -9.2421   -2.2225  -23.6375 C   0  0  0  0  0  0  0  0  0  0  0  0
  -10.2168   -1.3477  -23.4645 C   0  0  1  0  0  0  0  0  0  0  0  0
  -10.8008   -0.2926  -24.6094 C   0  0  0  0  0  0  0  0  0  0  0  0
  -11.8746    0.0050  -24.7316 C   0  0  0  0  0  0  0  0  0  0  0  0
  -12.9638   -0.4811  -23.9936 C   0  0  0  0  0  0  0  0  0  0  0  0
  -12.6661   -1.3436  -23.1481 C   0  0  0  0  0  0  0  0  0  0  0  0
  -11.7007   -1.8345  -22.8293 C   0  0  0  0  0  0  0  0  0  0  0  0
   -9.6659   -0.7177  -22.5752 C   0  0  0  0  0  0  0  0  0  0  0  0
   -9.0839   -0.0080  -21.6296 C   0  0  0  0  0  0  0  0  0  0  0  0
   -9.6138    0.9743  -21.4022 O   0  0  0  0  0  0  0  0  0  0  0  0
   -7.9954   -0.5959  -21.1321 N   0  0  0  0  0  0  0  0  0  0  0  0
   -7.3858   -0.0259  -20.1924 C   0  0  0  0  0  0  0  0  0  0  0  0
   -7.5273    0.2041  -18.8848 C   0  0  0  0  0  0  0  0  0  0  0  0
   -7.2655    0.6233  -17.7838 N   0  0  0  0  0  0  0  0  0  0  0  0
   -6.0268    1.1126  -18.1931 C   0  0  0  0  0  0  0  0  0  0  0  0
   -5.5413    1.0894  -19.2447 C   0  0  0  0  0  0  0  0  0  0  0  0
   -5.9590    0.5838  -20.4100 C   0  0  0  0  0  0  0  0  0  0  0  0
   -5.2299    0.5838  -21.7737 Cl  0  0  0  0  0  0  0  0  0  0  0  0
   -6.0273   -5.8770  -26.8017 H   0  0  0  0  0  0  0  0  0  0  0  0
   -5.4850   -4.4182  -25.9050 H   0  0  0  0  0  0  0  0  0  0  0  0
   -5.9602   -5.8994  -25.0069 H   0  0  0  0  0  0  0  0  0  0  0  0
   -7.0130   -3.3128  -24.4682 H   0  0  0  0  0  0  0  0  0  0  0  0
  -10.0859    0.1423  -25.2923 H   0  0  0  0  0  0  0  0  0  0  0  0
  -12.0921    0.7391  -25.4932 H   0  0  0  0  0  0  0  0  0  0  0  0
  -13.9756   -0.1358  -24.1466 H   0  0  0  0  0  0  0  0  0  0  0  0
  -13.5219   -1.7028  -22.5959 H   0  0  0  0  0  0  0  0  0  0  0  0
  -11.6304   -1.7035  -21.7394 H   0  0  0  0  0  0  0  0  0  0  0  0
  -11.8035   -2.9043  -23.0642 H   0  0  0  0  0  0  0  0  0  0  0  0
   -8.7026   -1.1837  -22.8301 H   0  0  0  0  0  0  0  0  0  0  0  0
  -10.1779   -1.3262  -21.8152 H   0  0  0  0  0  0  0  0  0  0  0  0
   -7.6721   -1.4687  -21.4977 H   0  0  0  0  0  0  0  0  0  0  0  0
   -8.4614   -0.3021  -18.6910 H   0  0  0  0  0  0  0  0  0  0  0  0
   -5.4351    1.5801  -17.4200 H   0  0  0  0  0  0  0  0  0  0  0  0
   -4.5722    1.5637  -19.2927 H   0  0  0  0  0  0  0  0  0  0  0  0
 20 21  2  0  0  0  0
 19 20  1  0  0  0  0
 21 22  1  0  0  0  0
 18 19  2  0  0  0  0
 22 23  2  0  0  0  0
 18 23  1  0  0  0  0
 17 18  1  0  0  0  0
 23 24  1  0  0  0  0
 15 16  2  0  0  0  0
 15 17  1  0  0  0  0
 14 15  1  0  0  0  0
  8 14  1  0  0  0  0
 12 13  1  0  0  0  0
  8 13  1  0  0  0  0
 11 12  2  0  0  0  0
  7  8  1  0  0  0  0
  8  9  1  0  0  0  0
 10 11  1  0  0  0  0
  6  7  3  0  0  0  0
  5  6  1  0  0  0  0
  9 10  2  0  0  0  0
  2  5  1  0  0  0  0
  2  3  2  0  0  0  0
  1  2  1  0  0  0  0
  2  4  2  0  0  0  0
  1 25  1  0  0  0  0
  1 26  1  0  0  0  0
  1 27  1  0  0  0  0
  5 28  1  0  0  0  0
  9 29  1  0  0  0  0
 10 30  1  0  0  0  0
 11 31  1  0  0  0  0
 12 32  1  0  0  0  0
 13 33  1  0  0  0  0
 13 34  1  0  0  0  0
 14 35  1  0  0  0  0
 14 36  1  0  0  0  0
 17 37  1  0  0  0  0
 19 38  1  0  0  0  0
 21 39  1  0  0  0  0
 22 40  1  0  0  0  0
M  END
> <Chemgauss4>
-12.711378

$$$$
