stable:False satoms:9 tatoms:24 sratio:0.375
  -OEChem-08062412163D

 32 34  0     1  0  0  0  0  0999 V2000
   -6.2335   -5.4732  -26.1455 Br  0  0  0  0  0  0  0  0  0  0  0  0
   -8.0456   -4.7067  -25.9466 S   0  0  0  0  0  0  0  0  0  0  0  0
   -8.8974   -5.8422  -25.8595 O   0  0  0  0  0  0  0  0  0  0  0  0
   -8.2500   -3.8539  -27.0478 O   0  0  0  0  0  0  0  0  0  0  0  0
   -7.9534   -3.9091  -24.5314 N   0  0  0  0  0  0  0  0  0  0  0  0
   -8.7539   -3.2140  -24.1109 C   0  0  0  0  0  0  0  0  0  0  0  0
   -9.2534   -2.3415  -23.6734 C   0  0  0  0  0  0  0  0  0  0  0  0
   -9.9685   -1.2630  -23.4754 C   0  0  2  0  0  0  0  0  0  0  0  0
  -10.6623   -0.3920  -24.8404 S   0  0  0  0  0  0  0  0  0  0  0  0
  -12.1136   -0.3826  -24.2482 C   0  0  0  0  0  0  0  0  0  0  0  0
  -13.0564   -0.2920  -23.9046 C   0  0  0  0  0  0  0  0  0  0  0  0
  -12.5807   -1.2307  -23.1753 C   0  0  0  0  0  0  0  0  0  0  0  0
  -12.3297   -1.9254  -22.5569 H   0  0  0  0  0  0  0  0  0  0  0  0
   -9.6882   -0.8401  -22.4058 C   0  0  0  0  0  0  0  0  0  0  0  0
   -9.0757   -0.1675  -21.3631 C   0  0  0  0  0  0  0  0  0  0  0  0
   -9.6103    0.7396  -20.8620 O   0  0  0  0  0  0  0  0  0  0  0  0
   -7.8863   -0.7118  -21.1637 N   0  0  0  0  0  0  0  0  0  0  0  0
   -7.2069   -0.2437  -20.1900 C   0  0  0  0  0  0  0  0  0  0  0  0
   -7.3535   -0.1299  -18.9069 C   0  0  0  0  0  0  0  0  0  0  0  0
   -6.9444    0.1823  -17.7561 N   0  0  0  0  0  0  0  0  0  0  0  0
   -5.9443    0.6052  -18.1598 C   0  0  0  0  0  0  0  0  0  0  0  0
   -5.4046    0.6951  -19.2873 C   0  0  0  0  0  0  0  0  0  0  0  0
   -5.8041    0.3106  -20.4217 C   0  0  0  0  0  0  0  0  0  0  0  0
   -5.3486    0.3665  -21.3528 H   0  0  0  0  0  0  0  0  0  0  0  0
   -7.1257   -3.3516  -24.5952 H   0  0  0  0  0  0  0  0  0  0  0  0
  -10.9032   -1.7705  -23.1948 H   0  0  0  0  0  0  0  0  0  0  0  0
  -13.8653   -0.5645  -24.5984 H   0  0  0  0  0  0  0  0  0  0  0  0
  -13.3107    0.6501  -23.3968 H   0  0  0  0  0  0  0  0  0  0  0  0
   -9.6060   -1.8309  -21.9352 H   0  0  0  0  0  0  0  0  0  0  0  0
  -10.6866   -0.4224  -22.2090 H   0  0  0  0  0  0  0  0  0  0  0  0
   -7.5391   -1.4488  -21.7437 H   0  0  0  0  0  0  0  0  0  0  0  0
   -4.4401    1.1810  -19.2889 H   0  0  0  0  0  0  0  0  0  0  0  0
 20 21  2  0  0  0  0
 19 20  1  0  0  0  0
 19 21  1  0  0  0  0
 21 22  1  0  0  0  0
 18 19  2  0  0  0  0
 22 23  2  0  0  0  0
 18 23  1  0  0  0  0
 17 18  1  0  0  0  0
 23 24  1  0  0  0  0
 15 16  2  0  0  0  0
 15 17  1  0  0  0  0
 14 15  1  0  0  0  0
  8 14  1  0  0  0  0
 12 13  1  0  0  0  0
 11 12  1  0  0  0  0
 10 12  2  0  0  0  0
  7  8  1  0  0  0  0
  8  9  1  0  0  0  0
 10 11  1  0  0  0  0
  6  7  3  0  0  0  0
  9 10  1  0  0  0  0
  5  6  1  0  0  0  0
  2  5  1  0  0  0  0
  2  3  2  0  0  0  0
  1  2  1  0  0  0  0
  2  4  2  0  0  0  0
  5 25  1  0  0  0  0
  8 26  1  0  0  0  0
 11 27  1  0  0  0  0
 11 28  1  0  0  0  0
 14 29  1  0  0  0  0
 14 30  1  0  0  0  0
 17 31  1  0  0  0  0
 22 32  1  0  0  0  0
M  END
> <Chemgauss4>
-9.592468

$$$$
