stable:False satoms:9 tatoms:24 sratio:0.375
  -OEChem-08062412163D

 32 34  0     1  0  0  0  0  0999 V2000
    5.9471   -5.3273   26.1952 Br  0  0  0  0  0  0  0  0  0  0  0  0
    7.7593   -4.5608   25.9963 S   0  0  0  0  0  0  0  0  0  0  0  0
    8.6110   -5.6963   25.9092 O   0  0  0  0  0  0  0  0  0  0  0  0
    7.9636   -3.7080   27.0975 O   0  0  0  0  0  0  0  0  0  0  0  0
    7.6671   -3.7632   24.5811 N   0  0  0  0  0  0  0  0  0  0  0  0
    8.4676   -3.0680   24.1606 C   0  0  0  0  0  0  0  0  0  0  0  0
    8.9671   -2.1956   23.7231 C   0  0  0  0  0  0  0  0  0  0  0  0
    9.6821   -1.1171   23.5251 C   0  0  2  0  0  0  0  0  0  0  0  0
   10.3760   -0.2461   24.8901 S   0  0  0  0  0  0  0  0  0  0  0  0
   11.8272   -0.2367   24.2979 C   0  0  0  0  0  0  0  0  0  0  0  0
   12.7700   -0.1461   23.9543 C   0  0  0  0  0  0  0  0  0  0  0  0
   12.2943   -1.0848   23.2250 C   0  0  0  0  0  0  0  0  0  0  0  0
   12.0433   -1.7795   22.6066 H   0  0  0  0  0  0  0  0  0  0  0  0
    9.4018   -0.6942   22.4555 C   0  0  0  0  0  0  0  0  0  0  0  0
    8.7893   -0.0216   21.4127 C   0  0  0  0  0  0  0  0  0  0  0  0
    9.3240    0.8855   20.9116 O   0  0  0  0  0  0  0  0  0  0  0  0
    7.5999   -0.5659   21.2134 N   0  0  0  0  0  0  0  0  0  0  0  0
    6.9205   -0.0978   20.2397 C   0  0  0  0  0  0  0  0  0  0  0  0
    7.0671    0.0160   18.9565 C   0  0  0  0  0  0  0  0  0  0  0  0
    6.6581    0.3282   17.8058 N   0  0  0  0  0  0  0  0  0  0  0  0
    5.6579    0.7511   18.2095 C   0  0  0  0  0  0  0  0  0  0  0  0
    5.1182    0.8410   19.3370 C   0  0  0  0  0  0  0  0  0  0  0  0
    5.5177    0.4565   20.4714 C   0  0  0  0  0  0  0  0  0  0  0  0
    5.0622    0.5124   21.4025 H   0  0  0  0  0  0  0  0  0  0  0  0
    6.8394   -3.2057   24.6449 H   0  0  0  0  0  0  0  0  0  0  0  0
   10.6168   -1.6246   23.2445 H   0  0  0  0  0  0  0  0  0  0  0  0
   13.5790   -0.4186   24.6481 H   0  0  0  0  0  0  0  0  0  0  0  0
   13.0244    0.7960   23.4465 H   0  0  0  0  0  0  0  0  0  0  0  0
    9.3196   -1.6850   21.9849 H   0  0  0  0  0  0  0  0  0  0  0  0
   10.4003   -0.2765   22.2587 H   0  0  0  0  0  0  0  0  0  0  0  0
    7.2528   -1.3029   21.7933 H   0  0  0  0  0  0  0  0  0  0  0  0
    4.1537    1.3269   19.3386 H   0  0  0  0  0  0  0  0  0  0  0  0
 20 21  2  0  0  0  0
 19 20  1  0  0  0  0
 19 21  1  0  0  0  0
 21 22  1  0  0  0  0
 18 19  2  0  0  0  0
 22 23  2  0  0  0  0
 18 23  1  0  0  0  0
 17 18  1  0  0  0  0
 23 24  1  0  0  0  0
 15 16  2  0  0  0  0
 15 17  1  0  0  0  0
 14 15  1  0  0  0  0
  8 14  1  0  0  0  0
 12 13  1  0  0  0  0
 11 12  1  0  0  0  0
 10 12  2  0  0  0  0
  7  8  1  0  0  0  0
  8  9  1  0  0  0  0
 10 11  1  0  0  0  0
  6  7  3  0  0  0  0
  9 10  1  0  0  0  0
  5  6  1  0  0  0  0
  2  5  1  0  0  0  0
  2  3  2  0  0  0  0
  1  2  1  0  0  0  0
  2  4  2  0  0  0  0
  5 25  1  0  0  0  0
  8 26  1  0  0  0  0
 11 27  1  0  0  0  0
 11 28  1  0  0  0  0
 14 29  1  0  0  0  0
 14 30  1  0  0  0  0
 17 31  1  0  0  0  0
 22 32  1  0  0  0  0
M  END
> <Chemgauss4>
-9.388172

$$$$
