stable:False satoms:19 tatoms:24 sratio:0.7916666666666666
  -OEChem-07092417363D

 24 24  0     1  0  0  0  0  0999 V2000
    7.4036   -3.4801   25.6819 H   0  0  0  0  0  0  0  0  0  0  0  0
    8.0704   -4.7795   24.7077 H   0  0  0  0  0  0  0  0  0  0  0  0
    9.4672   -3.9744   25.8557 O   0  0  0  0  0  0  0  0  0  0  0  0
    9.4531   -3.1721   26.4172 H   0  0  0  0  0  0  0  0  0  0  0  0
    8.2936   -3.7864   25.1130 C   0  0  0  0  0  0  0  0  0  0  0  0
    8.6102   -2.8921   24.0720 O   0  0  0  0  0  0  0  0  0  0  0  0
   10.1368   -0.0442   22.3900 C   0  0  0  0  0  0  0  0  0  0  0  0
    9.9240   -2.1081   23.5703 S   0  2  1  0  0  0  0  0  0  0  0  0
   11.2888   -1.2037   23.8939 C   0  0  0  0  0  0  0  0  0  0  0  0
   11.2918   -0.1085   23.1944 C   0  0  0  0  0  0  0  0  0  0  0  0
   12.1349    0.5950   23.1384 H   0  0  0  0  0  0  0  0  0  0  0  0
   12.0773   -1.6262   24.4554 H   0  0  0  0  0  0  0  0  0  0  0  0
   10.8541   -3.5653   22.5329 Br  0  0  0  0  0  0  0  0  0  0  0  0
    9.2456   -0.9664   22.5519 C   0  0  0  0  0  0  0  0  0  0  0  0
    8.0085   -0.9579   22.0999 N   0  0  0  0  0  0  0  0  0  0  0  0
    9.9969    0.7729   21.5932 H   0  0  0  0  0  0  0  0  0  0  0  0
    7.7473   -0.4442   20.9077 C   0  0  0  0  0  0  0  0  0  0  0  0
    6.5168    0.4183   20.8250 C   0  0  0  0  0  0  0  0  0  0  0  0
    8.3616   -0.6787   19.8781 O   0  0  0  0  0  0  0  0  0  0  0  0
    6.5408    0.1499   18.6789 H   0  0  0  0  0  0  0  0  0  0  0  0
    6.8462    1.7846   19.2010 H   0  0  0  0  0  0  0  0  0  0  0  0
    5.2037    1.1487   19.3225 H   0  0  0  0  0  0  0  0  0  0  0  0
    6.2690    0.8953   19.4264 C   0  0  0  0  0  0  0  0  0  0  0  0
    5.8418    0.7332   21.7892 O   0  0  0  0  0  0  0  0  0  0  0  0
 20 23  1  0  0  0  0
 21 23  1  0  0  0  0
 22 23  1  0  0  0  0
 18 23  1  0  0  0  0
 17 19  2  0  0  0  0
 17 18  1  0  0  0  0
 18 24  2  0  0  0  0
 15 17  1  0  0  0  0
  7 16  1  0  0  0  0
 14 15  1  0  0  0  0
  7 14  2  0  0  0  0
  7 10  1  0  0  0  0
  8 13  1  0  0  0  0
  8 14  1  0  0  0  0
 10 11  1  0  0  0  0
  9 10  2  0  0  0  0
  8  9  1  0  0  0  0
  6  8  1  0  0  0  0
  9 12  1  0  0  0  0
  5  6  1  0  0  0  0
  2  5  1  0  0  0  0
  1  5  1  0  0  0  0
  3  5  1  0  0  0  0
  3  4  1  0  0  0  0
M  CHG  1   8   2
M  END
> <Shapegauss>
-149.037445

$$$$
