stable:False satoms:19 tatoms:24 sratio:0.7916666666666666
  -OEChem-08052423363D

 25 25  0     1  0  0  0  0  0999 V2000
   -9.7437   -4.8891  -27.2338 H   0  0  0  0  0  0  0  0  0  0  0  0
   -8.2509   -4.1824  -27.8292 H   0  0  0  0  0  0  0  0  0  0  0  0
   -7.8812   -5.5175  -26.4157 O   0  0  0  0  0  0  0  0  0  0  0  0
   -8.4847   -5.9952  -25.8100 H   0  0  0  0  0  0  0  0  0  0  0  0
   -8.7488   -4.5397  -26.9210 C   0  0  0  0  0  0  0  0  0  0  0  0
   -8.8088   -3.5129  -25.9588 O   0  0  0  0  0  0  0  0  0  0  0  0
   -8.9424   -1.9415  -22.6751 C   0  0  0  0  0  0  0  0  0  0  0  0
   -8.1412   -3.2233  -24.5225 S   0  2  1  0  0  0  0  0  0  0  0  0
   -7.6801   -3.7392  -23.0038 C   0  0  0  0  0  0  0  0  0  0  0  0
   -8.1754   -2.9654  -22.0847 C   0  0  0  0  0  0  0  0  0  0  0  0
   -7.9216   -3.0222  -21.0164 H   0  0  0  0  0  0  0  0  0  0  0  0
   -6.9357   -4.4820  -22.9055 H   0  0  0  0  0  0  0  0  0  0  0  0
   -6.3368   -2.5215  -25.0850 Br  0  0  0  0  0  0  0  0  0  0  0  0
   -9.1271   -1.9966  -23.9533 C   0  0  0  0  0  0  0  0  0  0  0  0
  -10.0000   -1.3047  -24.6561 N   0  0  0  0  0  0  0  0  0  0  0  0
   -9.3643   -1.0672  -22.0589 H   0  0  0  0  0  0  0  0  0  0  0  0
  -10.2535   -0.0455  -24.3343 C   0  0  0  0  0  0  0  0  0  0  0  0
  -11.7034    0.3565  -24.3673 C   0  0  0  0  0  0  0  0  0  0  0  0
   -9.4181    0.8152  -24.1026 O   0  0  0  0  0  0  0  0  0  0  0  0
  -11.0709    2.4231  -24.4529 H   0  0  0  0  0  0  0  0  0  0  0  0
  -11.9081    1.9891  -22.9870 H   0  0  0  0  0  0  0  0  0  0  0  0
  -12.8384    2.1494  -24.4789 H   0  0  0  0  0  0  0  0  0  0  0  0
  -11.8810    1.8113  -24.0559 C   0  0  0  0  0  0  0  0  0  0  0  0
  -12.6197   -0.4214  -24.5670 O   0  0  0  0  0  0  0  0  0  0  0  0
  -10.4698   -1.7289  -25.4303 H   0  0  0  0  0  0  0  0  0  0  0  0
 20 23  1  0  0  0  0
 21 23  1  0  0  0  0
 22 23  1  0  0  0  0
 18 23  1  0  0  0  0
 17 19  2  0  0  0  0
 17 18  1  0  0  0  0
 18 24  2  0  0  0  0
 15 17  1  0  0  0  0
  7 16  1  0  0  0  0
 14 15  1  0  0  0  0
  7 14  2  0  0  0  0
  7 10  1  0  0  0  0
  8 13  1  0  0  0  0
  8 14  1  0  0  0  0
 10 11  1  0  0  0  0
  9 10  2  0  0  0  0
  8  9  1  0  0  0  0
  6  8  1  0  0  0  0
  9 12  1  0  0  0  0
  5  6  1  0  0  0  0
  2  5  1  0  0  0  0
  1  5  1  0  0  0  0
  3  5  1  0  0  0  0
  3  4  1  0  0  0  0
 15 25  1  0  0  0  0
M  CHG  1   8   2
M  END
> <Chemgauss4>
-5.288504

$$$$
