stable:False satoms:19 tatoms:24 sratio:0.7916666666666666
  -OEChem-08052423363D

 25 25  0     1  0  0  0  0  0999 V2000
    9.7639   -4.9497   27.4005 H   0  0  0  0  0  0  0  0  0  0  0  0
    8.2711   -4.2431   27.9959 H   0  0  0  0  0  0  0  0  0  0  0  0
    7.9015   -5.5782   26.5823 O   0  0  0  0  0  0  0  0  0  0  0  0
    8.5049   -6.0559   25.9766 H   0  0  0  0  0  0  0  0  0  0  0  0
    8.7691   -4.6004   27.0877 C   0  0  0  0  0  0  0  0  0  0  0  0
    8.8290   -3.5736   26.1255 O   0  0  0  0  0  0  0  0  0  0  0  0
    8.9626   -2.0022   22.8417 C   0  0  0  0  0  0  0  0  0  0  0  0
    8.1614   -3.2840   24.6892 S   0  2  1  0  0  0  0  0  0  0  0  0
    7.7003   -3.7999   23.1705 C   0  0  0  0  0  0  0  0  0  0  0  0
    8.1956   -3.0261   22.2514 C   0  0  0  0  0  0  0  0  0  0  0  0
    7.9418   -3.0829   21.1831 H   0  0  0  0  0  0  0  0  0  0  0  0
    6.9559   -4.5427   23.0722 H   0  0  0  0  0  0  0  0  0  0  0  0
    6.3570   -2.5822   25.2516 Br  0  0  0  0  0  0  0  0  0  0  0  0
    9.1473   -2.0573   24.1199 C   0  0  0  0  0  0  0  0  0  0  0  0
   10.0202   -1.3653   24.8228 N   0  0  0  0  0  0  0  0  0  0  0  0
    9.3845   -1.1278   22.2256 H   0  0  0  0  0  0  0  0  0  0  0  0
   10.2737   -0.1061   24.5010 C   0  0  0  0  0  0  0  0  0  0  0  0
   11.7236    0.2958   24.5340 C   0  0  0  0  0  0  0  0  0  0  0  0
    9.4383    0.7546   24.2693 O   0  0  0  0  0  0  0  0  0  0  0  0
   11.0911    2.3625   24.6196 H   0  0  0  0  0  0  0  0  0  0  0  0
   11.9283    1.9285   23.1537 H   0  0  0  0  0  0  0  0  0  0  0  0
   12.8586    2.0887   24.6456 H   0  0  0  0  0  0  0  0  0  0  0  0
   11.9012    1.7506   24.2225 C   0  0  0  0  0  0  0  0  0  0  0  0
   12.6399   -0.4820   24.7336 O   0  0  0  0  0  0  0  0  0  0  0  0
   10.4900   -1.7895   25.5970 H   0  0  0  0  0  0  0  0  0  0  0  0
 20 23  1  0  0  0  0
 21 23  1  0  0  0  0
 22 23  1  0  0  0  0
 18 23  1  0  0  0  0
 17 19  2  0  0  0  0
 17 18  1  0  0  0  0
 18 24  2  0  0  0  0
 15 17  1  0  0  0  0
  7 16  1  0  0  0  0
 14 15  1  0  0  0  0
  7 14  2  0  0  0  0
  7 10  1  0  0  0  0
  8 13  1  0  0  0  0
  8 14  1  0  0  0  0
 10 11  1  0  0  0  0
  9 10  2  0  0  0  0
  8  9  1  0  0  0  0
  6  8  1  0  0  0  0
  9 12  1  0  0  0  0
  5  6  1  0  0  0  0
  2  5  1  0  0  0  0
  1  5  1  0  0  0  0
  3  5  1  0  0  0  0
  3  4  1  0  0  0  0
 15 25  1  0  0  0  0
M  CHG  1   8   2
M  END
> <Chemgauss4>
-5.292682

$$$$
