stable:False satoms:7 tatoms:24 sratio:0.2916666666666667
  -OEChem-08062416483D

 43 45  0     1  0  0  0  0  0999 V2000
    6.3064   -5.1565   26.3308 C   0  0  0  0  0  0  0  0  0  0  0  0
    7.9897   -4.5566   26.0888 S   0  0  0  0  0  0  0  0  0  0  0  0
    8.8327   -5.7175   26.0473 O   0  0  0  0  0  0  0  0  0  0  0  0
    8.3027   -3.6971   27.1912 O   0  0  0  0  0  0  0  0  0  0  0  0
    7.9778   -3.7816   24.6621 N   0  0  0  0  0  0  0  0  0  0  0  0
    8.8459   -3.0938   24.1927 C   0  0  0  0  0  0  0  0  0  0  0  0
    9.3081   -2.0627   23.6382 C   0  0  0  0  0  0  0  0  0  0  0  0
   10.1787   -1.1880   23.5086 C   0  0  1  0  0  0  0  0  0  0  0  0
   10.7930   -0.1352   24.6305 C   0  0  0  0  0  0  0  0  0  0  0  0
   11.7856    0.1887   24.7269 C   0  0  0  0  0  0  0  0  0  0  0  0
   13.0405   -0.3508   23.8261 C   0  0  0  0  0  0  0  0  0  0  0  0
   12.6430   -1.2568   23.0880 C   0  0  0  0  0  0  0  0  0  0  0  0
   11.6968   -1.7892   22.8257 C   0  0  0  0  0  0  0  0  0  0  0  0
    9.6384   -0.6407   22.5796 C   0  0  2  0  0  0  0  0  0  0  0  0
    9.0363    0.0335   21.5889 C   0  0  0  0  0  0  0  0  0  0  0  0
    9.5023    1.0123   21.2667 O   0  0  0  0  0  0  0  0  0  0  0  0
    7.9386   -0.5887   21.1780 N   0  0  0  0  0  0  0  0  0  0  0  0
    7.2529   -0.1218   20.2384 C   0  0  0  0  0  0  0  0  0  0  0  0
    7.3707    0.0286   18.9365 C   0  0  0  0  0  0  0  0  0  0  0  0
    6.9646    0.4142   17.8472 N   0  0  0  0  0  0  0  0  0  0  0  0
    5.8206    0.9374   18.2727 C   0  0  0  0  0  0  0  0  0  0  0  0
    5.3500    0.9810   19.4006 C   0  0  0  0  0  0  0  0  0  0  0  0
    5.8534    0.5086   20.5400 C   0  0  0  0  0  0  0  0  0  0  0  0
    5.2583    0.5576   22.0183 C   0  0  0  0  0  0  0  0  0  0  0  0
    6.2427   -5.6959   27.2873 H   0  0  0  0  0  0  0  0  0  0  0  0
    5.6117   -4.3037   26.3440 H   0  0  0  0  0  0  0  0  0  0  0  0
    6.0375   -5.8356   25.5083 H   0  0  0  0  0  0  0  0  0  0  0  0
    7.1750   -3.1867   24.7020 H   0  0  0  0  0  0  0  0  0  0  0  0
    9.7256   -3.7077   24.3178 H   0  0  0  0  0  0  0  0  0  0  0  0
   10.0892    0.2639   25.3459 H   0  0  0  0  0  0  0  0  0  0  0  0
   11.9957    0.9355   25.4783 H   0  0  0  0  0  0  0  0  0  0  0  0
   14.0522    0.0248   23.8701 H   0  0  0  0  0  0  0  0  0  0  0  0
   13.4668   -1.6605   22.5182 H   0  0  0  0  0  0  0  0  0  0  0  0
   11.5971   -1.7558   21.7307 H   0  0  0  0  0  0  0  0  0  0  0  0
   11.8096   -2.8336   23.1520 H   0  0  0  0  0  0  0  0  0  0  0  0
   10.1706   -1.2775   21.8576 H   0  0  0  0  0  0  0  0  0  0  0  0
    7.6556   -1.4386   21.6224 H   0  0  0  0  0  0  0  0  0  0  0  0
    8.3240   -0.4256   18.7100 H   0  0  0  0  0  0  0  0  0  0  0  0
    5.2131    1.3941   17.5055 H   0  0  0  0  0  0  0  0  0  0  0  0
    4.3914    1.4714   19.4848 H   0  0  0  0  0  0  0  0  0  0  0  0
    4.6597   -0.3465   22.2033 H   0  0  0  0  0  0  0  0  0  0  0  0
    6.0834    0.6058   22.7442 H   0  0  0  0  0  0  0  0  0  0  0  0
    4.6213    1.4477   22.1276 H   0  0  0  0  0  0  0  0  0  0  0  0
 20 21  2  0  0  0  0
 19 20  1  0  0  0  0
 21 22  1  0  0  0  0
 18 19  2  0  0  0  0
 22 23  2  0  0  0  0
 18 23  1  0  0  0  0
 17 18  1  0  0  0  0
 23 24  1  0  0  0  0
 15 16  2  0  0  0  0
 15 17  1  0  0  0  0
 14 15  1  0  0  0  0
  8 14  1  0  0  0  0
  7 14  1  0  0  0  0
 12 13  1  0  0  0  0
  8 13  1  0  0  0  0
 11 12  2  0  0  0  0
  7  8  1  0  0  0  0
  8  9  1  0  0  0  0
 10 11  1  0  0  0  0
  6  7  2  3  0  0  0
  5  6  1  0  0  0  0
  9 10  2  0  0  0  0
  2  5  1  0  0  0  0
  2  3  2  0  0  0  0
  1  2  1  0  0  0  0
  2  4  2  0  0  0  0
  1 25  1  0  0  0  0
  1 26  1  0  0  0  0
  1 27  1  0  0  0  0
  5 28  1  0  0  0  0
  6 29  1  0  0  0  0
  9 30  1  0  0  0  0
 10 31  1  0  0  0  0
 11 32  1  0  0  0  0
 12 33  1  0  0  0  0
 13 34  1  0  0  0  0
 13 35  1  0  0  0  0
 14 36  1  0  0  0  0
 17 37  1  0  0  0  0
 19 38  1  0  0  0  0
 21 39  1  0  0  0  0
 22 40  1  0  0  0  0
 24 41  1  0  0  0  0
 24 42  1  0  0  0  0
 24 43  1  0  0  0  0
M  END
> <Chemgauss4>
-13.166080

$$$$
