stable:False satoms:7 tatoms:24 sratio:0.2916666666666667
  -OEChem-08062416483D

 43 45  0     1  0  0  0  0  0999 V2000
   -6.6476   -5.3303  -26.3188 C   0  0  0  0  0  0  0  0  0  0  0  0
   -8.3310   -4.7305  -26.0769 S   0  0  0  0  0  0  0  0  0  0  0  0
   -9.1739   -5.8914  -26.0354 O   0  0  0  0  0  0  0  0  0  0  0  0
   -8.6440   -3.8709  -27.1793 O   0  0  0  0  0  0  0  0  0  0  0  0
   -8.3191   -3.9555  -24.6502 N   0  0  0  0  0  0  0  0  0  0  0  0
   -9.1872   -3.2677  -24.1808 C   0  0  0  0  0  0  0  0  0  0  0  0
   -9.6493   -2.2366  -23.6263 C   0  0  0  0  0  0  0  0  0  0  0  0
  -10.5200   -1.3619  -23.4966 C   0  0  1  0  0  0  0  0  0  0  0  0
  -11.1343   -0.3091  -24.6186 C   0  0  0  0  0  0  0  0  0  0  0  0
  -12.1268    0.0148  -24.7150 C   0  0  0  0  0  0  0  0  0  0  0  0
  -13.3818   -0.5247  -23.8141 C   0  0  0  0  0  0  0  0  0  0  0  0
  -12.9842   -1.4307  -23.0760 C   0  0  0  0  0  0  0  0  0  0  0  0
  -12.0381   -1.9630  -22.8138 C   0  0  0  0  0  0  0  0  0  0  0  0
   -9.9797   -0.8146  -22.5676 C   0  0  2  0  0  0  0  0  0  0  0  0
   -9.3775   -0.1404  -21.5769 C   0  0  0  0  0  0  0  0  0  0  0  0
   -9.8436    0.8384  -21.2548 O   0  0  0  0  0  0  0  0  0  0  0  0
   -8.2799   -0.7626  -21.1660 N   0  0  0  0  0  0  0  0  0  0  0  0
   -7.5942   -0.2956  -20.2264 C   0  0  0  0  0  0  0  0  0  0  0  0
   -7.7120   -0.1453  -18.9246 C   0  0  0  0  0  0  0  0  0  0  0  0
   -7.3059    0.2403  -17.8353 N   0  0  0  0  0  0  0  0  0  0  0  0
   -6.1619    0.7635  -18.2608 C   0  0  0  0  0  0  0  0  0  0  0  0
   -5.6912    0.8071  -19.3886 C   0  0  0  0  0  0  0  0  0  0  0  0
   -6.1947    0.3347  -20.5280 C   0  0  0  0  0  0  0  0  0  0  0  0
   -5.5996    0.3837  -22.0064 C   0  0  0  0  0  0  0  0  0  0  0  0
   -6.5840   -5.8698  -27.2753 H   0  0  0  0  0  0  0  0  0  0  0  0
   -5.9530   -4.4775  -26.3321 H   0  0  0  0  0  0  0  0  0  0  0  0
   -6.3788   -6.0095  -25.4964 H   0  0  0  0  0  0  0  0  0  0  0  0
   -7.5163   -3.3606  -24.6900 H   0  0  0  0  0  0  0  0  0  0  0  0
  -10.0669   -3.8816  -24.3058 H   0  0  0  0  0  0  0  0  0  0  0  0
  -10.4305    0.0900  -25.3340 H   0  0  0  0  0  0  0  0  0  0  0  0
  -12.3370    0.7616  -25.4664 H   0  0  0  0  0  0  0  0  0  0  0  0
  -14.3934   -0.1491  -23.8582 H   0  0  0  0  0  0  0  0  0  0  0  0
  -13.8081   -1.8344  -22.5063 H   0  0  0  0  0  0  0  0  0  0  0  0
  -11.9384   -1.9297  -21.7188 H   0  0  0  0  0  0  0  0  0  0  0  0
  -12.1509   -3.0075  -23.1400 H   0  0  0  0  0  0  0  0  0  0  0  0
  -10.5119   -1.4514  -21.8457 H   0  0  0  0  0  0  0  0  0  0  0  0
   -7.9969   -1.6125  -21.6105 H   0  0  0  0  0  0  0  0  0  0  0  0
   -8.6653   -0.5995  -18.6980 H   0  0  0  0  0  0  0  0  0  0  0  0
   -5.5544    1.2202  -17.4935 H   0  0  0  0  0  0  0  0  0  0  0  0
   -4.7327    1.2975  -19.4728 H   0  0  0  0  0  0  0  0  0  0  0  0
   -5.0009   -0.5204  -22.1913 H   0  0  0  0  0  0  0  0  0  0  0  0
   -6.4246    0.4319  -22.7322 H   0  0  0  0  0  0  0  0  0  0  0  0
   -4.9625    1.2738  -22.1157 H   0  0  0  0  0  0  0  0  0  0  0  0
 20 21  2  0  0  0  0
 19 20  1  0  0  0  0
 21 22  1  0  0  0  0
 18 19  2  0  0  0  0
 22 23  2  0  0  0  0
 18 23  1  0  0  0  0
 17 18  1  0  0  0  0
 23 24  1  0  0  0  0
 15 16  2  0  0  0  0
 15 17  1  0  0  0  0
 14 15  1  0  0  0  0
  8 14  1  0  0  0  0
  7 14  1  0  0  0  0
 12 13  1  0  0  0  0
  8 13  1  0  0  0  0
 11 12  2  0  0  0  0
  7  8  1  0  0  0  0
  8  9  1  0  0  0  0
 10 11  1  0  0  0  0
  6  7  2  3  0  0  0
  5  6  1  0  0  0  0
  9 10  2  0  0  0  0
  2  5  1  0  0  0  0
  2  3  2  0  0  0  0
  1  2  1  0  0  0  0
  2  4  2  0  0  0  0
  1 25  1  0  0  0  0
  1 26  1  0  0  0  0
  1 27  1  0  0  0  0
  5 28  1  0  0  0  0
  6 29  1  0  0  0  0
  9 30  1  0  0  0  0
 10 31  1  0  0  0  0
 11 32  1  0  0  0  0
 12 33  1  0  0  0  0
 13 34  1  0  0  0  0
 13 35  1  0  0  0  0
 14 36  1  0  0  0  0
 17 37  1  0  0  0  0
 19 38  1  0  0  0  0
 21 39  1  0  0  0  0
 22 40  1  0  0  0  0
 24 41  1  0  0  0  0
 24 42  1  0  0  0  0
 24 43  1  0  0  0  0
M  END
> <Chemgauss4>
-12.755768

$$$$
