stable:False satoms:22 tatoms:24 sratio:0.9166666666666666
  -OEChem-07092417323D

 24 24  0     1  0  0  0  0  0999 V2000
    6.1425   -2.8529   23.3533 H   0  0  0  0  0  0  0  0  0  0  0  0
    8.3785   -1.7959   20.9449 S   0  0  0  0  0  0  0  0  0  0  0  0
   11.0030   -2.8538   21.8410 O   0  0  0  0  0  0  0  0  0  0  0  0
    6.5242   -1.8716   23.0747 C   0  3  0  0  0  0  0  0  0  0  0  0
    8.6622   -2.9245   23.1545 H   0  0  0  0  0  0  0  0  0  0  0  0
    8.8617   -2.0996   23.7238 N   0  0  0  0  0  0  0  0  0  0  0  0
    7.6751    0.5699   22.6571 H   0  0  0  0  0  0  0  0  0  0  0  0
   10.7671   -2.5303   24.0934 H   0  0  0  0  0  0  0  0  0  0  0  0
    8.0229    0.2247   23.6214 C   0  0  0  0  0  0  0  0  0  0  0  0
    9.9557    0.2775   21.8477 H   0  0  0  0  0  0  0  0  0  0  0  0
    9.7161   -0.7201   21.3895 C   0  0  1  0  0  0  0  0  0  0  0  0
   11.8988   -2.7446   22.2480 H   0  0  0  0  0  0  0  0  0  0  0  0
   10.2184   -1.7325   23.5604 C   0  0  0  0  0  0  0  0  0  0  0  0
   10.6199   -0.7945   23.9282 H   0  0  0  0  0  0  0  0  0  0  0  0
    9.0689    0.4423   23.7085 H   0  0  0  0  0  0  0  0  0  0  0  0
    7.4711    0.7842   24.3784 H   0  0  0  0  0  0  0  0  0  0  0  0
    7.6805   -1.2719   23.7762 C   0  0  1  0  0  0  0  0  0  0  0  0
    9.8916   -0.6454   19.2382 H   0  0  0  0  0  0  0  0  0  0  0  0
   10.4754   -1.6396   22.0854 N   0  0  1  0  0  0  0  0  0  0  0  0
    8.5123    0.3014   19.7627 H   0  0  0  0  0  0  0  0  0  0  0  0
    9.1720   -0.5236   20.0506 C   0  0  0  0  0  0  0  0  0  0  0  0
    7.2860   -1.3452   24.7923 H   0  0  0  0  0  0  0  0  0  0  0  0
    5.8881   -1.2332   22.1270 O   0  0  0  0  0  0  0  0  0  0  0  0
    5.6919   -0.3110   21.9395 H   0  0  0  0  0  0  0  0  0  0  0  0
 18 21  1  0  0  0  0
 20 21  1  0  0  0  0
  2 21  1  0  0  0  0
 11 21  1  0  0  0  0
  2 11  1  0  0  0  0
 10 11  1  0  0  0  0
 11 19  1  0  0  0  0
  3 19  1  0  0  0  0
  3 12  1  0  0  0  0
 23 24  1  0  0  0  0
 13 19  1  0  0  0  0
  4 23  1  0  0  0  0
  7  9  1  0  0  0  0
  1  4  1  0  0  0  0
  4 17  1  0  0  0  0
  5  6  1  0  0  0  0
  6 13  1  0  0  0  0
 13 14  1  0  0  0  0
  8 13  1  0  0  0  0
  9 15  1  0  0  0  0
  9 17  1  0  0  0  0
  9 16  1  0  0  0  0
  6 17  1  0  0  0  0
 17 22  1  0  0  0  0
M  CHG  1   4   1
M  END
> <Shapegauss>
-81.394974

$$$$
