stable:False satoms:22 tatoms:24 sratio:0.9166666666666666
  -OEChem-08052421313D

 23 23  0     1  0  0  0  0  0999 V2000
    9.1733    0.4370   23.7791 S   0  0  0  0  0  0  0  0  0  0  0  0
    9.1920    1.9805   21.2439 O   0  5  0  0  0  0  0  0  0  0  0  0
    9.5460   -2.3116   23.2436 C   0  0  0  0  0  2  0  0  0  0  0  0
    9.2317   -0.5471   21.7576 H   0  0  0  0  0  0  0  0  0  0  0  0
   10.1356   -0.8084   21.4188 N   0  3  0  0  0  0  0  0  0  0  0  0
   11.8022   -0.9931   24.0380 H   0  0  0  0  0  0  0  0  0  0  0  0
   10.3347    0.4956   19.9313 H   0  0  0  0  0  0  0  0  0  0  0  0
   11.9644   -1.2932   23.0115 C   0  0  0  0  0  0  0  0  0  0  0  0
   11.7329    1.3101   23.2429 H   0  0  0  0  0  0  0  0  0  0  0  0
   10.6094    1.3248   23.2373 C   0  0  1  0  0  0  0  0  0  0  0  0
   10.7023    0.4079   20.9699 C   0  0  0  0  0  0  0  0  0  0  0  0
   11.7732    0.5737   20.9245 H   0  0  0  0  0  0  0  0  0  0  0  0
   12.4294   -0.4834   22.4852 H   0  0  0  0  0  0  0  0  0  0  0  0
   12.6409   -2.1490   23.0326 H   0  0  0  0  0  0  0  0  0  0  0  0
   10.6228   -1.7482   22.3999 C   0  0  1  0  0  0  0  0  0  0  0  0
    9.8467    2.7250   24.6940 H   0  0  0  0  0  0  0  0  0  0  0  0
   10.2474    1.4812   21.9141 N   0  0  1  0  0  0  0  0  0  0  0  0
   10.5852    1.3565   25.5039 H   0  0  0  0  0  0  0  0  0  0  0  0
   10.1197    1.6754   24.5656 C   0  0  0  0  0  0  0  0  0  0  0  0
   10.8787   -2.6643   21.8626 H   0  0  0  0  0  0  0  0  0  0  0  0
    9.5851   -2.2377   24.5487 O   0  0  0  0  0  0  0  0  0  0  0  0
   10.2824   -2.2338   25.2105 H   0  0  0  0  0  0  0  0  0  0  0  0
   10.0348   -1.3534   20.5864 H   0  0  0  0  0  0  0  0  0  0  0  0
 16 19  1  0  0  0  0
 18 19  1  0  0  0  0
  1 19  1  0  0  0  0
 10 19  1  0  0  0  0
  1 10  1  0  0  0  0
  9 10  1  0  0  0  0
 10 17  1  0  0  0  0
  2 17  1  0  0  0  0
 21 22  1  0  0  0  0
 11 17  1  0  0  0  0
  3 21  1  0  0  0  0
  6  8  1  0  0  0  0
  3 15  1  0  0  0  0
  4  5  1  0  0  0  0
  5 11  1  0  0  0  0
 11 12  1  0  0  0  0
  7 11  1  0  0  0  0
  8 13  1  0  0  0  0
  8 15  1  0  0  0  0
  8 14  1  0  0  0  0
  5 15  1  0  0  0  0
 15 20  1  0  0  0  0
  5 23  1  0  0  0  0
M  CHG  2   2  -1   5   1
M  END
> <Chemgauss4>
-6.080218

$$$$
