stable:False satoms:22 tatoms:24 sratio:0.9166666666666666
  -OEChem-08052421303D

 23 23  0     1  0  0  0  0  0999 V2000
   -9.5334    0.3544  -23.9533 S   0  0  0  0  0  0  0  0  0  0  0  0
   -9.5522    1.8979  -21.4181 O   0  5  0  0  0  0  0  0  0  0  0  0
   -9.9062   -2.3942  -23.4179 C   0  0  0  0  0  2  0  0  0  0  0  0
   -9.5919   -0.6297  -21.9319 H   0  0  0  0  0  0  0  0  0  0  0  0
  -10.4957   -0.8910  -21.5930 N   0  3  0  0  0  0  0  0  0  0  0  0
  -12.1624   -1.0757  -24.2122 H   0  0  0  0  0  0  0  0  0  0  0  0
  -10.6949    0.4130  -20.1056 H   0  0  0  0  0  0  0  0  0  0  0  0
  -12.3245   -1.3758  -23.1858 C   0  0  0  0  0  0  0  0  0  0  0  0
  -12.0931    1.2276  -23.4172 H   0  0  0  0  0  0  0  0  0  0  0  0
  -10.9695    1.2422  -23.4115 C   0  0  1  0  0  0  0  0  0  0  0  0
  -11.0625    0.3254  -21.1442 C   0  0  0  0  0  0  0  0  0  0  0  0
  -12.1334    0.4911  -21.0988 H   0  0  0  0  0  0  0  0  0  0  0  0
  -12.7896   -0.5660  -22.6594 H   0  0  0  0  0  0  0  0  0  0  0  0
  -13.0011   -2.2316  -23.2069 H   0  0  0  0  0  0  0  0  0  0  0  0
  -10.9829   -1.8307  -22.5741 C   0  0  1  0  0  0  0  0  0  0  0  0
  -10.2069    2.6425  -24.8683 H   0  0  0  0  0  0  0  0  0  0  0  0
  -10.6075    1.3986  -22.0884 N   0  0  1  0  0  0  0  0  0  0  0  0
  -10.9454    1.2740  -25.6781 H   0  0  0  0  0  0  0  0  0  0  0  0
  -10.4798    1.5929  -24.7399 C   0  0  0  0  0  0  0  0  0  0  0  0
  -11.2388   -2.7469  -22.0369 H   0  0  0  0  0  0  0  0  0  0  0  0
   -9.9453   -2.3203  -24.7230 O   0  0  0  0  0  0  0  0  0  0  0  0
  -10.6425   -2.3164  -25.3847 H   0  0  0  0  0  0  0  0  0  0  0  0
  -10.3949   -1.4360  -20.7607 H   0  0  0  0  0  0  0  0  0  0  0  0
 16 19  1  0  0  0  0
 18 19  1  0  0  0  0
  1 19  1  0  0  0  0
 10 19  1  0  0  0  0
  1 10  1  0  0  0  0
  9 10  1  0  0  0  0
 10 17  1  0  0  0  0
  2 17  1  0  0  0  0
 21 22  1  0  0  0  0
 11 17  1  0  0  0  0
  3 21  1  0  0  0  0
  6  8  1  0  0  0  0
  3 15  1  0  0  0  0
  4  5  1  0  0  0  0
  5 11  1  0  0  0  0
 11 12  1  0  0  0  0
  7 11  1  0  0  0  0
  8 13  1  0  0  0  0
  8 15  1  0  0  0  0
  8 14  1  0  0  0  0
  5 15  1  0  0  0  0
 15 20  1  0  0  0  0
  5 23  1  0  0  0  0
M  CHG  2   2  -1   5   1
M  END
> <Chemgauss4>
-6.033117

$$$$
