stable:False satoms:20 tatoms:24 sratio:0.8333333333333334
  -OEChem-07092417293D

 24 23  0     1  0  0  0  0  0999 V2000
   11.8914   -1.7565   24.1876 N   0  0  0  0  0  0  0  0  0  0  0  0
    7.9201   -3.2641   20.1922 H   0  0  0  0  0  0  0  0  0  0  0  0
    8.3756   -2.2842   20.3626 C   0  0  0  0  0  0  0  0  0  0  0  0
   11.9449   -2.3225   25.4164 N   0  0  0  0  0  0  0  0  0  0  0  0
    9.4953   -2.0472   19.6876 O   0  0  0  0  0  0  0  0  0  0  0  0
   10.2034   -0.3116   24.1466 N   0  0  0  0  0  0  0  0  0  0  0  0
   10.8044   -1.4230   23.6582 N   0  0  0  0  0  0  0  0  0  0  0  0
    8.5628    1.2331   23.9818 O   0  0  0  0  0  0  0  0  0  0  0  0
    6.8182   -0.6161   23.1707 C   0  0  0  0  0  0  0  0  0  0  0  0
   10.0390   -1.3947   20.1506 H   0  0  0  0  0  0  0  0  0  0  0  0
    6.2392   -1.4600   22.8543 H   0  0  0  0  0  0  0  0  0  0  0  0
    8.3071   -0.7632   22.5117 C   0  0  1  0  0  0  0  0  0  0  0  0
    6.2645    0.1143   20.6333 H   0  0  0  0  0  0  0  0  0  0  0  0
    7.7788   -1.3177   21.0146 C   0  0  0  0  0  0  0  0  0  0  0  0
    5.8166   -1.5663   20.2556 H   0  0  0  0  0  0  0  0  0  0  0  0
    6.4252    0.3036   22.7895 H   0  0  0  0  0  0  0  0  0  0  0  0
    6.6296   -0.8315   20.2298 C   0  0  0  0  0  0  0  0  0  0  0  0
   11.5099   -1.7646   26.1323 H   0  0  0  0  0  0  0  0  0  0  0  0
    9.0779    0.2056   23.6517 C   0  0  0  0  0  0  0  0  0  0  0  0
    9.2874   -1.4520   22.4673 H   0  0  0  0  0  0  0  0  0  0  0  0
   11.7530   -3.3142   25.3374 H   0  0  0  0  0  0  0  0  0  0  0  0
   10.5925    0.0385   25.0327 H   0  0  0  0  0  0  0  0  0  0  0  0
    6.9367   -0.7061   19.1975 H   0  0  0  0  0  0  0  0  0  0  0  0
    6.9106   -0.5897   24.2346 H   0  0  0  0  0  0  0  0  0  0  0  0
 17 23  1  0  0  0  0
  5 10  1  0  0  0  0
  3  5  1  0  0  0  0
  2  3  1  0  0  0  0
 15 17  1  0  0  0  0
 13 17  1  0  0  0  0
 14 17  1  0  0  0  0
  3 14  2  3  0  0  0
 12 14  1  0  0  0  0
 12 20  1  0  0  0  0
  9 12  1  0  0  0  0
 12 19  1  0  0  0  0
  9 16  1  0  0  0  0
  9 11  1  0  0  0  0
  9 24  1  0  0  0  0
  8 19  2  0  0  0  0
  6 19  1  0  0  0  0
  6  7  1  0  0  0  0
  1  7  2  3  0  0  0
  6 22  1  0  0  0  0
  1  4  1  0  0  0  0
  4 21  1  0  0  0  0
  4 18  1  0  0  0  0
M  END
> <Shapegauss>
-82.057251

$$$$
