stable:False satoms:20 tatoms:24 sratio:0.8333333333333334
  -OEChem-08052413523D

 24 23  0     1  0  0  0  0  0999 V2000
   11.9421    4.6713   23.6291 N   0  0  0  0  0  0  0  0  0  0  0  0
   11.4338   -0.5019   26.2724 H   0  0  0  0  0  0  0  0  0  0  0  0
   11.7112   -0.2923   25.2352 C   0  0  0  0  0  0  0  0  0  0  0  0
   11.1659    5.7345   23.9456 N   0  0  0  0  0  0  0  0  0  0  0  0
   13.0105   -0.1270   25.0114 O   0  0  0  0  0  0  0  0  0  0  0  0
   10.7413    3.2575   22.4051 N   0  0  0  0  0  0  0  0  0  0  0  0
   11.4692    3.5149   23.5182 N   0  0  0  0  0  0  0  0  0  0  0  0
    9.6608    1.7612   21.1019 O   0  0  0  0  0  0  0  0  0  0  0  0
    8.7788    0.4383   23.2451 C   0  0  0  0  0  0  0  0  0  0  0  0
   13.1527    0.4247   24.2296 H   0  0  0  0  0  0  0  0  0  0  0  0
    8.5071    0.0131   24.1900 H   0  0  0  0  0  0  0  0  0  0  0  0
   10.3334    0.9325   23.3542 C   0  0  1  0  0  0  0  0  0  0  0  0
   10.0258   -1.9473   23.0665 H   0  0  0  0  0  0  0  0  0  0  0  0
   10.8749   -0.3954   24.2325 C   0  0  0  0  0  0  0  0  0  0  0  0
    9.8592   -2.1573   24.8260 H   0  0  0  0  0  0  0  0  0  0  0  0
    8.7633   -0.2892   22.4602 H   0  0  0  0  0  0  0  0  0  0  0  0
   10.5259   -1.8127   24.0270 C   0  0  0  0  0  0  0  0  0  0  0  0
   10.3948    5.8684   23.3128 H   0  0  0  0  0  0  0  0  0  0  0  0
   10.2244    2.0632   22.1125 C   0  0  0  0  0  0  0  0  0  0  0  0
   11.0810    1.6712   23.9310 H   0  0  0  0  0  0  0  0  0  0  0  0
   11.0298    5.7633   24.9492 H   0  0  0  0  0  0  0  0  0  0  0  0
   10.4800    4.0875   21.8558 H   0  0  0  0  0  0  0  0  0  0  0  0
   11.4319   -2.4071   24.0655 H   0  0  0  0  0  0  0  0  0  0  0  0
    8.1631    1.2790   23.0100 H   0  0  0  0  0  0  0  0  0  0  0  0
 17 23  1  0  0  0  0
  5 10  1  0  0  0  0
  3  5  1  0  0  0  0
  2  3  1  0  0  0  0
 15 17  1  0  0  0  0
 13 17  1  0  0  0  0
 14 17  1  0  0  0  0
  3 14  2  3  0  0  0
 12 14  1  0  0  0  0
 12 20  1  0  0  0  0
  9 12  1  0  0  0  0
 12 19  1  0  0  0  0
  9 16  1  0  0  0  0
  9 11  1  0  0  0  0
  9 24  1  0  0  0  0
  8 19  2  0  0  0  0
  6 19  1  0  0  0  0
  6  7  1  0  0  0  0
  1  7  2  3  0  0  0
  6 22  1  0  0  0  0
  1  4  1  0  0  0  0
  4 21  1  0  0  0  0
  4 18  1  0  0  0  0
M  END
> <Chemgauss4>
-5.764041

$$$$
