stable:False satoms:20 tatoms:24 sratio:0.8333333333333334
  -OEChem-08052413523D

 24 23  0     1  0  0  0  0  0999 V2000
  -11.7850    4.6408  -23.8532 N   0  0  0  0  0  0  0  0  0  0  0  0
  -12.5141   -0.8108  -25.7913 H   0  0  0  0  0  0  0  0  0  0  0  0
  -12.6500   -0.4257  -24.7764 C   0  0  0  0  0  0  0  0  0  0  0  0
  -10.8534    5.4806  -24.3633 N   0  0  0  0  0  0  0  0  0  0  0  0
  -13.8680    0.0225  -24.4915 O   0  0  0  0  0  0  0  0  0  0  0  0
  -10.7672    3.1741  -22.5298 N   0  0  0  0  0  0  0  0  0  0  0  0
  -11.5322    3.4353  -23.6167 N   0  0  0  0  0  0  0  0  0  0  0  0
   -9.8752    1.6609  -21.1087 O   0  0  0  0  0  0  0  0  0  0  0  0
   -9.4617   -0.0617  -23.1044 C   0  0  0  0  0  0  0  0  0  0  0  0
  -13.8303    0.6821  -23.7850 H   0  0  0  0  0  0  0  0  0  0  0  0
   -9.3639   -0.6441  -23.9981 H   0  0  0  0  0  0  0  0  0  0  0  0
  -10.8974    0.7169  -23.1766 C   0  0  1  0  0  0  0  0  0  0  0  0
  -11.1174   -2.1096  -22.5184 H   0  0  0  0  0  0  0  0  0  0  0  0
  -11.7599   -0.5719  -23.8269 C   0  0  0  0  0  0  0  0  0  0  0  0
  -11.1564   -2.5603  -24.2398 H   0  0  0  0  0  0  0  0  0  0  0  0
   -9.5125   -0.6770  -22.2301 H   0  0  0  0  0  0  0  0  0  0  0  0
  -11.6690   -1.9949  -23.4529 C   0  0  0  0  0  0  0  0  0  0  0  0
  -10.0160    5.5330  -23.8074 H   0  0  0  0  0  0  0  0  0  0  0  0
  -10.4618    1.9449  -22.1114 C   0  0  0  0  0  0  0  0  0  0  0  0
  -11.5409    1.5151  -23.7981 H   0  0  0  0  0  0  0  0  0  0  0  0
  -10.8073    5.3597  -25.3682 H   0  0  0  0  0  0  0  0  0  0  0  0
  -10.3034    3.9953  -22.1178 H   0  0  0  0  0  0  0  0  0  0  0  0
  -12.6711   -2.3958  -23.3494 H   0  0  0  0  0  0  0  0  0  0  0  0
   -8.6785    0.6607  -23.0281 H   0  0  0  0  0  0  0  0  0  0  0  0
 17 23  1  0  0  0  0
  5 10  1  0  0  0  0
  3  5  1  0  0  0  0
  2  3  1  0  0  0  0
 15 17  1  0  0  0  0
 13 17  1  0  0  0  0
 14 17  1  0  0  0  0
  3 14  2  3  0  0  0
 12 14  1  0  0  0  0
 12 20  1  0  0  0  0
  9 12  1  0  0  0  0
 12 19  1  0  0  0  0
  9 16  1  0  0  0  0
  9 11  1  0  0  0  0
  9 24  1  0  0  0  0
  8 19  2  0  0  0  0
  6 19  1  0  0  0  0
  6  7  1  0  0  0  0
  1  7  2  3  0  0  0
  6 22  1  0  0  0  0
  1  4  1  0  0  0  0
  4 21  1  0  0  0  0
  4 18  1  0  0  0  0
M  END
> <Chemgauss4>
-5.782370

$$$$
