MODEL 1
REMARK VINA RESULT:    -6.767      0.000      0.000
REMARK INTER + INTRA:          -6.767
REMARK INTER:                  -6.767
REMARK INTRA:                   0.000
REMARK UNBOUND:                 0.000
REMARK  0 active torsions:
REMARK  status: ('A' for Active; 'I' for Inactive)
ROOT
HETATM    1  N   UNL     1       8.237  11.279   3.048  1.00  0.00    -0.384 N 
HETATM    2  C   UNL     1       6.223  15.211   4.891  1.00  0.00     0.001 C 
HETATM    3  C   UNL     1       7.497  15.493   5.357  1.00  0.00     0.000 C 
HETATM    4  C   UNL     1       8.204  12.588   3.319  1.00  0.00     0.128 C 
HETATM    5  N   UNL     1       9.931  14.584   1.923  1.00  0.00    -0.294 N 
ATOM      6  HN  UNL     1      10.534  14.117   1.244  1.00  0.00     0.187 HD
HETATM    7  O   UNL     1       8.174  17.551   1.207  1.00  0.00    -0.287 OA
HETATM    8  C   UNL     1       6.819  13.241   3.320  1.00  0.00     0.046 C 
HETATM    9  N   UNL     1       9.362  13.094   3.559  1.00  0.00    -0.271 N 
ATOM     10  HN  UNL     1       9.801  12.699   4.390  1.00  0.00     0.190 HD
HETATM   11  C   UNL     1       8.519  15.771   4.464  1.00  0.00     0.004 C 
HETATM   12  C   UNL     1       8.312  16.610   3.368  1.00  0.00     0.056 C 
HETATM   13  O   UNL     1       5.501  12.062   1.714  1.00  0.00    -0.301 OA
HETATM   14  C   UNL     1       9.362  15.522   1.303  1.00  0.00     0.163 C 
HETATM   15  C   UNL     1       6.124  12.573   2.500  1.00  0.00     0.273 C 
HETATM   16  C   UNL     1       8.579  16.630   1.891  1.00  0.00     0.188 C 
HETATM   17  C   UNL     1       5.981  14.248   3.910  1.00  0.00     0.018 C 
HETATM   18  N   UNL     1      10.082  13.979   2.993  1.00  0.00    -0.241 N 
ATOM     19  HN  UNL     1      10.926  14.231   3.507  1.00  0.00     0.208 HD
HETATM   20  H   UNL     1       9.118  10.915   2.742  1.00  0.00     0.157 HD
HETATM   21  H   UNL     1       7.628  10.656   3.573  1.00  0.00     0.157 HD
ENDROOT
TORSDOF 0
ENDMDL
MODEL 2
REMARK VINA RESULT:    -6.451      2.093      4.288
REMARK INTER + INTRA:          -6.451
REMARK INTER:                  -6.451
REMARK INTRA:                   0.000
REMARK UNBOUND:                 0.000
REMARK  0 active torsions:
REMARK  status: ('A' for Active; 'I' for Inactive)
ROOT
HETATM    1  N   UNL     1      11.077  16.613   5.420  1.00  0.00    -0.384 N 
HETATM    2  C   UNL     1       7.414  17.414   2.444  1.00  0.00     0.001 C 
HETATM    3  C   UNL     1       8.257  16.904   1.470  1.00  0.00     0.000 C 
HETATM    4  C   UNL     1      10.255  16.275   4.421  1.00  0.00     0.128 C 
HETATM    5  N   UNL     1       9.941  13.469   3.448  1.00  0.00    -0.294 N 
ATOM      6  HN  UNL     1      10.549  12.841   3.976  1.00  0.00     0.187 HD
HETATM    7  O   UNL     1       6.579  12.714   2.716  1.00  0.00    -0.287 OA
HETATM    8  C   UNL     1       8.816  16.787   4.528  1.00  0.00     0.046 C 
HETATM    9  N   UNL     1      10.822  15.576   3.501  1.00  0.00    -0.271 N 
ATOM     10  HN  UNL     1      11.568  16.082   3.024  1.00  0.00     0.190 HD
HETATM   11  C   UNL     1       8.645  15.573   1.512  1.00  0.00     0.004 C 
HETATM   12  C   UNL     1       7.728  14.562   1.799  1.00  0.00     0.056 C 
HETATM   13  O   UNL     1       8.295  16.890   6.857  1.00  0.00    -0.301 OA
HETATM   14  C   UNL     1       8.789  12.959   3.488  1.00  0.00     0.163 C 
HETATM   15  C   UNL     1       8.577  16.879   5.768  1.00  0.00     0.273 C 
HETATM   16  C   UNL     1       7.612  13.356   2.685  1.00  0.00     0.188 C 
HETATM   17  C   UNL     1       7.666  17.259   3.808  1.00  0.00     0.018 C 
HETATM   18  N   UNL     1      10.660  14.395   3.052  1.00  0.00    -0.241 N 
ATOM     19  HN  UNL     1      11.217  14.175   2.226  1.00  0.00     0.208 HD
HETATM   20  H   UNL     1      11.897  16.049   5.526  1.00  0.00     0.157 HD
HETATM   21  H   UNL     1      11.142  17.591   5.689  1.00  0.00     0.157 HD
ENDROOT
TORSDOF 0
ENDMDL
MODEL 3
REMARK VINA RESULT:    -6.377     24.652     25.978
REMARK INTER + INTRA:          -6.377
REMARK INTER:                  -6.377
REMARK INTRA:                   0.000
REMARK UNBOUND:                 0.000
REMARK  0 active torsions:
REMARK  status: ('A' for Active; 'I' for Inactive)
ROOT
HETATM    1  N   UNL     1       8.224  -3.135  25.658  1.00  0.00    -0.384 N 
HETATM    2  C   UNL     1      11.719  -0.083  24.481  1.00  0.00     0.001 C 
HETATM    3  C   UNL     1      11.994  -0.985  23.466  1.00  0.00     0.000 C 
HETATM    4  C   UNL     1       8.949  -2.431  24.782  1.00  0.00     0.128 C 
HETATM    5  N   UNL     1       8.055  -1.899  21.984  1.00  0.00    -0.294 N 
ATOM      6  HN  UNL     1       7.149  -2.336  21.812  1.00  0.00     0.187 HD
HETATM    7  O   UNL     1       8.819   1.390  20.977  1.00  0.00    -0.287 OA
HETATM    8  C   UNL     1       9.459  -1.071  25.267  1.00  0.00     0.046 C 
HETATM    9  N   UNL     1       9.122  -3.030  23.657  1.00  0.00    -0.271 N 
ATOM     10  HN  UNL     1       9.651  -3.897  23.748  1.00  0.00     0.190 HD
HETATM   11  C   UNL     1      11.078  -1.186  22.445  1.00  0.00     0.004 C 
HETATM   12  C   UNL     1      10.422  -0.112  21.842  1.00  0.00     0.056 C 
HETATM   13  O   UNL     1       7.830  -0.234  26.802  1.00  0.00    -0.301 OA
HETATM   14  C   UNL     1       7.940  -0.696  21.622  1.00  0.00     0.163 C 
HETATM   15  C   UNL     1       8.608  -0.667  26.113  1.00  0.00     0.273 C 
HETATM   16  C   UNL     1       9.030   0.288  21.448  1.00  0.00     0.188 C 
HETATM   17  C   UNL     1      10.526  -0.110  25.203  1.00  0.00     0.018 C 
HETATM   18  N   UNL     1       8.782  -2.783  22.455  1.00  0.00    -0.241 N 
ATOM     19  HN  UNL     1       9.176  -3.421  21.763  1.00  0.00     0.208 HD
HETATM   20  H   UNL     1       7.640  -3.850  25.272  1.00  0.00     0.157 HD
HETATM   21  H   UNL     1       8.599  -3.287  26.591  1.00  0.00     0.157 HD
ENDROOT
TORSDOF 0
ENDMDL
MODEL 4
REMARK VINA RESULT:    -6.199     23.377     24.596
REMARK INTER + INTRA:          -6.199
REMARK INTER:                  -6.199
REMARK INTRA:                   0.000
REMARK UNBOUND:                 0.000
REMARK  0 active torsions:
REMARK  status: ('A' for Active; 'I' for Inactive)
ROOT
HETATM    1  N   UNL     1       8.894  -3.034  22.757  1.00  0.00    -0.384 N 
HETATM    2  C   UNL     1      10.677   0.908  24.804  1.00  0.00     0.001 C 
HETATM    3  C   UNL     1      11.348   1.077  23.604  1.00  0.00     0.000 C 
HETATM    4  C   UNL     1       9.246  -1.744  22.757  1.00  0.00     0.128 C 
HETATM    5  N   UNL     1       8.267   0.211  20.723  1.00  0.00    -0.294 N 
ATOM      6  HN  UNL     1       7.656  -0.254  20.050  1.00  0.00     0.187 HD
HETATM    7  O   UNL     1       7.498   3.326  22.176  1.00  0.00    -0.287 OA
HETATM    8  C   UNL     1       9.082  -1.000  24.085  1.00  0.00     0.046 C 
HETATM    9  N   UNL     1       9.692  -1.331  21.623  1.00  0.00    -0.271 N 
ATOM     10  HN  UNL     1      10.551  -1.803  21.341  1.00  0.00     0.190 HD
HETATM   11  C   UNL     1      10.640   1.339  22.441  1.00  0.00     0.004 C 
HETATM   12  C   UNL     1       9.586   2.252  22.428  1.00  0.00     0.056 C 
HETATM   13  O   UNL     1       7.220  -1.993  25.204  1.00  0.00    -0.301 OA
HETATM   14  C   UNL     1       7.633   1.220  21.135  1.00  0.00     0.163 C 
HETATM   15  C   UNL     1       8.123  -1.571  24.682  1.00  0.00     0.273 C 
HETATM   16  C   UNL     1       8.170   2.341  21.935  1.00  0.00     0.188 C 
HETATM   17  C   UNL     1       9.607   0.024  24.946  1.00  0.00     0.018 C 
HETATM   18  N   UNL     1       9.302  -0.465  20.774  1.00  0.00    -0.241 N 
ATOM     19  HN  UNL     1       9.955  -0.300  20.006  1.00  0.00     0.208 HD
HETATM   20  H   UNL     1       8.700  -3.438  21.861  1.00  0.00     0.157 HD
HETATM   21  H   UNL     1       9.278  -3.645  23.474  1.00  0.00     0.157 HD
ENDROOT
TORSDOF 0
ENDMDL
MODEL 5
REMARK VINA RESULT:    -6.121     25.075     26.367
REMARK INTER + INTRA:          -6.121
REMARK INTER:                  -6.121
REMARK INTRA:                   0.000
REMARK UNBOUND:                 0.000
REMARK  0 active torsions:
REMARK  status: ('A' for Active; 'I' for Inactive)
ROOT
HETATM    1  N   UNL     1      25.107   3.205  18.311  1.00  0.00    -0.384 N 
HETATM    2  C   UNL     1      24.274  -1.398  19.330  1.00  0.00     0.001 C 
HETATM    3  C   UNL     1      22.997  -1.141  18.859  1.00  0.00     0.000 C 
HETATM    4  C   UNL     1      24.609   1.994  18.040  1.00  0.00     0.128 C 
HETATM    5  N   UNL     1      23.796   1.143  15.296  1.00  0.00    -0.294 N 
ATOM      6  HN  UNL     1      23.944   1.903  14.631  1.00  0.00     0.187 HD
HETATM    7  O   UNL     1      24.728  -2.190  14.637  1.00  0.00    -0.287 OA
HETATM    8  C   UNL     1      25.410   0.801  18.569  1.00  0.00     0.046 C 
HETATM    9  N   UNL     1      23.504   2.026  17.383  1.00  0.00    -0.271 N 
ATOM     10  HN  UNL     1      22.748   2.474  17.901  1.00  0.00     0.190 HD
HETATM   11  C   UNL     1      22.796  -0.833  17.522  1.00  0.00     0.004 C 
HETATM   12  C   UNL     1      23.447  -1.543  16.512  1.00  0.00     0.056 C 
HETATM   13  O   UNL     1      27.708   1.456  18.557  1.00  0.00    -0.301 OA
HETATM   14  C   UNL     1      24.361   0.129  14.804  1.00  0.00     0.163 C 
HETATM   15  C   UNL     1      26.616   1.184  18.600  1.00  0.00     0.273 C 
HETATM   16  C   UNL     1      24.233  -1.271  15.262  1.00  0.00     0.188 C 
HETATM   17  C   UNL     1      25.345  -0.534  19.098  1.00  0.00     0.018 C 
HETATM   18  N   UNL     1      23.141   1.623  16.230  1.00  0.00    -0.241 N 
ATOM     19  HN  UNL     1      22.141   1.710  16.046  1.00  0.00     0.208 HD
HETATM   20  H   UNL     1      24.786   3.953  17.729  1.00  0.00     0.157 HD
HETATM   21  H   UNL     1      25.351   3.429  19.272  1.00  0.00     0.157 HD
ENDROOT
TORSDOF 0
ENDMDL
MODEL 6
REMARK VINA RESULT:    -6.014     23.583     24.918
REMARK INTER + INTRA:          -6.014
REMARK INTER:                  -6.014
REMARK INTRA:                   0.000
REMARK UNBOUND:                 0.000
REMARK  0 active torsions:
REMARK  status: ('A' for Active; 'I' for Inactive)
ROOT
HETATM    1  N   UNL     1       6.414   0.465  23.076  1.00  0.00    -0.384 N 
HETATM    2  C   UNL     1      10.720   2.554  22.960  1.00  0.00     0.001 C 
HETATM    3  C   UNL     1      10.817   2.139  24.279  1.00  0.00     0.000 C 
HETATM    4  C   UNL     1       7.725   0.513  23.338  1.00  0.00     0.128 C 
HETATM    5  N   UNL     1       9.331  -1.897  24.064  1.00  0.00    -0.294 N 
ATOM      6  HN  UNL     1       8.734  -2.725  24.090  1.00  0.00     0.187 HD
HETATM    7  O   UNL     1      12.498  -1.862  22.523  1.00  0.00    -0.287 OA
HETATM    8  C   UNL     1       8.593   1.232  22.301  1.00  0.00     0.046 C 
HETATM    9  N   UNL     1       8.049  -0.045  24.450  1.00  0.00    -0.271 N 
ATOM     10  HN  UNL     1       7.636   0.417  25.260  1.00  0.00     0.190 HD
HETATM   11  C   UNL     1      10.875   0.787  24.581  1.00  0.00     0.004 C 
HETATM   12  C   UNL     1      11.672  -0.085  23.840  1.00  0.00     0.056 C 
HETATM   13  O   UNL     1       7.553   0.892  20.178  1.00  0.00    -0.301 OA
HETATM   14  C   UNL     1      10.312  -2.192  23.329  1.00  0.00     0.163 C 
HETATM   15  C   UNL     1       8.001   1.080  21.193  1.00  0.00     0.273 C 
HETATM   16  C   UNL     1      11.564  -1.423  23.166  1.00  0.00     0.188 C 
HETATM   17  C   UNL     1       9.755   2.050  22.087  1.00  0.00     0.018 C 
HETATM   18  N   UNL     1       8.771  -1.046  24.767  1.00  0.00    -0.241 N 
ATOM     19  HN  UNL     1       8.913  -1.166  25.770  1.00  0.00     0.208 HD
HETATM   20  H   UNL     1       5.895  -0.243  23.556  1.00  0.00     0.157 HD
HETATM   21  H   UNL     1       5.930   1.329  22.848  1.00  0.00     0.157 HD
ENDROOT
TORSDOF 0
ENDMDL
MODEL 7
REMARK VINA RESULT:    -5.932     25.278     26.531
REMARK INTER + INTRA:          -5.932
REMARK INTER:                  -5.932
REMARK INTRA:                   0.000
REMARK UNBOUND:                 0.000
REMARK  0 active torsions:
REMARK  status: ('A' for Active; 'I' for Inactive)
ROOT
HETATM    1  N   UNL     1       8.377  -0.348  26.998  1.00  0.00    -0.384 N 
HETATM    2  C   UNL     1       8.131  -1.867  22.466  1.00  0.00     0.001 C 
HETATM    3  C   UNL     1       8.463  -0.561  22.142  1.00  0.00     0.000 C 
HETATM    4  C   UNL     1       8.822  -0.426  25.740  1.00  0.00     0.128 C 
HETATM    5  N   UNL     1      11.613   0.289  24.953  1.00  0.00    -0.294 N 
ATOM      6  HN  UNL     1      12.141   0.601  25.768  1.00  0.00     0.187 HD
HETATM    7  O   UNL     1      12.910  -1.961  22.572  1.00  0.00    -0.287 OA
HETATM    8  C   UNL     1       8.567  -1.750  25.015  1.00  0.00     0.046 C 
HETATM    9  N   UNL     1       9.388   0.653  25.325  1.00  0.00    -0.271 N 
ATOM     10  HN  UNL     1       8.750   1.447  25.293  1.00  0.00     0.190 HD
HETATM   11  C   UNL     1       9.708  -0.055  22.480  1.00  0.00     0.004 C 
HETATM   12  C   UNL     1      10.868  -0.807  22.296  1.00  0.00     0.056 C 
HETATM   13  O   UNL     1       8.618  -3.465  26.677  1.00  0.00    -0.301 OA
HETATM   14  C   UNL     1      12.313  -0.601  24.398  1.00  0.00     0.163 C 
HETATM   15  C   UNL     1       8.551  -2.637  25.917  1.00  0.00     0.273 C 
HETATM   16  C   UNL     1      12.101  -1.194  23.061  1.00  0.00     0.188 C 
HETATM   17  C   UNL     1       8.278  -2.379  23.755  1.00  0.00     0.018 C 
HETATM   18  N   UNL     1      10.567   0.951  24.945  1.00  0.00    -0.241 N 
ATOM     19  HN  UNL     1      10.665   1.895  24.569  1.00  0.00     0.208 HD
HETATM   20  H   UNL     1       8.795   0.359  27.570  1.00  0.00     0.157 HD
HETATM   21  H   UNL     1       7.409  -0.595  27.190  1.00  0.00     0.157 HD
ENDROOT
TORSDOF 0
ENDMDL
MODEL 8
REMARK VINA RESULT:    -5.728     31.531     32.753
REMARK INTER + INTRA:          -5.728
REMARK INTER:                  -5.728
REMARK INTRA:                   0.000
REMARK UNBOUND:                 0.000
REMARK  0 active torsions:
REMARK  status: ('A' for Active; 'I' for Inactive)
ROOT
HETATM    1  N   UNL     1      -1.244 -15.918  11.820  1.00  0.00    -0.384 N 
HETATM    2  C   UNL     1      -3.294 -15.389   7.526  1.00  0.00     0.001 C 
HETATM    3  C   UNL     1      -2.235 -14.535   7.265  1.00  0.00     0.000 C 
HETATM    4  C   UNL     1      -1.214 -15.831  10.485  1.00  0.00     0.128 C 
HETATM    5  N   UNL     1       1.110 -16.739   8.845  1.00  0.00    -0.294 N 
ATOM      6  HN  UNL     1       1.851 -17.098   9.449  1.00  0.00     0.187 HD
HETATM    7  O   UNL     1       0.068 -18.377   5.906  1.00  0.00    -0.287 OA
HETATM    8  C   UNL     1      -2.427 -16.402   9.746  1.00  0.00     0.046 C 
HETATM    9  N   UNL     1      -0.160 -15.253  10.029  1.00  0.00    -0.271 N 
ATOM     10  HN  UNL     1      -0.083 -14.280  10.324  1.00  0.00     0.190 HD
HETATM   11  C   UNL     1      -0.942 -15.029   7.195  1.00  0.00     0.004 C 
HETATM   12  C   UNL     1      -0.658 -16.216   6.519  1.00  0.00     0.056 C 
HETATM   13  O   UNL     1      -3.240 -18.224  11.061  1.00  0.00    -0.301 OA
HETATM   14  C   UNL     1       0.904 -17.627   7.974  1.00  0.00     0.163 C 
HETATM   15  C   UNL     1      -2.870 -17.333  10.480  1.00  0.00     0.273 C 
HETATM   16  C   UNL     1       0.102 -17.492   6.740  1.00  0.00     0.188 C 
HETATM   17  C   UNL     1      -3.294 -16.273   8.606  1.00  0.00     0.018 C 
HETATM   18  N   UNL     1       0.811 -15.624   9.291  1.00  0.00    -0.241 N 
ATOM     19  HN  UNL     1       1.449 -14.874   9.023  1.00  0.00     0.208 HD
HETATM   20  H   UNL     1      -0.361 -15.844  12.285  1.00  0.00     0.157 HD
HETATM   21  H   UNL     1      -2.065 -15.577  12.313  1.00  0.00     0.157 HD
ENDROOT
TORSDOF 0
ENDMDL
MODEL 9
REMARK VINA RESULT:    -5.712     24.912     26.331
REMARK INTER + INTRA:          -5.712
REMARK INTER:                  -5.712
REMARK INTRA:                   0.000
REMARK UNBOUND:                 0.000
REMARK  0 active torsions:
REMARK  status: ('A' for Active; 'I' for Inactive)
ROOT
HETATM    1  N   UNL     1      11.594  -1.346  21.851  1.00  0.00    -0.384 N 
HETATM    2  C   UNL     1       8.260   1.226  24.129  1.00  0.00     0.001 C 
HETATM    3  C   UNL     1       7.372   0.607  23.264  1.00  0.00     0.000 C 
HETATM    4  C   UNL     1      10.403  -1.188  22.438  1.00  0.00     0.128 C 
HETATM    5  N   UNL     1       8.724  -3.480  23.357  1.00  0.00    -0.294 N 
ATOM      6  HN  UNL     1       9.186  -4.365  23.145  1.00  0.00     0.187 HD
HETATM    7  O   UNL     1       7.193  -2.811  26.458  1.00  0.00    -0.287 OA
HETATM    8  C   UNL     1      10.354  -0.207  23.612  1.00  0.00     0.046 C 
HETATM    9  N   UNL     1       9.466  -1.886  21.899  1.00  0.00    -0.271 N 
ATOM     10  HN  UNL     1       9.282  -1.620  20.932  1.00  0.00     0.190 HD
HETATM   11  C   UNL     1       7.157  -0.760  23.346  1.00  0.00     0.004 C 
HETATM   12  C   UNL     1       7.002  -1.393  24.580  1.00  0.00     0.056 C 
HETATM   13  O   UNL     1      12.491  -0.302  24.677  1.00  0.00    -0.301 OA
HETATM   14  C   UNL     1       8.413  -3.528  24.578  1.00  0.00     0.163 C 
HETATM   15  C   UNL     1      11.508  -0.237  24.132  1.00  0.00     0.273 C 
HETATM   16  C   UNL     1       7.522  -2.600  25.306  1.00  0.00     0.188 C 
HETATM   17  C   UNL     1       9.565   0.768  24.315  1.00  0.00     0.018 C 
HETATM   18  N   UNL     1       8.716  -2.833  22.302  1.00  0.00    -0.241 N 
ATOM     19  HN  UNL     1       7.984  -3.104  21.644  1.00  0.00     0.208 HD
HETATM   20  H   UNL     1      11.712  -2.182  21.313  1.00  0.00     0.157 HD
HETATM   21  H   UNL     1      12.104  -0.519  21.552  1.00  0.00     0.157 HD
ENDROOT
TORSDOF 0
ENDMDL
