stable:False satoms:14 tatoms:24 sratio:0.5833333333333334
  -OEChem-07092417273D

 24 24  0     0  0  0  0  0  0999 V2000
   11.5674   -0.0773   23.4834 N   0  0  0  0  0  0  0  0  0  0  0  0
    7.5167   -2.5533   24.1008 C   0  0  0  0  0  0  0  0  0  0  0  0
    5.7949   -1.8213   21.6056 H   0  0  0  0  0  0  0  0  0  0  0  0
    6.8979   -1.3152   24.0354 C   0  0  0  0  0  0  0  0  0  0  0  0
   10.2898   -0.3644   23.2090 C   0  0  0  0  0  0  0  0  0  0  0  0
    8.9212    0.5263   20.7089 N   0  0  0  0  0  0  0  0  0  0  0  0
    6.4348   -0.9399   24.9279 H   0  0  0  0  0  0  0  0  0  0  0  0
    6.8314   -1.9906   19.4033 O   0  0  0  0  0  0  0  0  0  0  0  0
    9.8861   -1.8353   23.3421 C   0  0  0  0  0  0  0  0  0  0  0  0
    6.9627   -3.3998   24.4939 H   0  0  0  0  0  0  0  0  0  0  0  0
    9.5872    0.6653   22.8901 N   0  0  0  0  0  0  0  0  0  0  0  0
    8.8682   -0.4874   18.9652 H   0  0  0  0  0  0  0  0  0  0  0  0
    6.9181   -0.5877   22.8548 C   0  0  0  0  0  0  0  0  0  0  0  0
    6.6876   -1.2032   21.6244 C   0  0  0  0  0  0  0  0  0  0  0  0
   11.8133   -3.1308   22.7819 O   0  0  0  0  0  0  0  0  0  0  0  0
    7.1215    0.4664   22.8962 H   0  0  0  0  0  0  0  0  0  0  0  0
    8.4365   -0.3616   19.9564 C   0  3  0  0  0  0  0  0  0  0  0  0
   10.9309   -2.5022   23.0884 C   0  0  0  0  0  0  0  0  0  0  0  0
    9.1482   -3.7858   23.6708 H   0  0  0  0  0  0  0  0  0  0  0  0
    7.2929   -1.2509   20.2511 C   0  0  0  0  0  0  0  0  0  0  0  0
    8.8368   -2.7518   23.6951 C   0  0  0  0  0  0  0  0  0  0  0  0
    8.9632    1.0274   21.8399 N   0  0  0  0  0  0  0  0  0  0  0  0
   11.9140    0.7855   23.1115 H   0  0  0  0  0  0  0  0  0  0  0  0
   11.9629   -0.4025   24.3606 H   0  0  0  0  0  0  0  0  0  0  0  0
 12 17  1  0  0  0  0
  8 20  2  0  0  0  0
 17 20  1  0  0  0  0
  6 17  1  0  0  0  0
 14 20  1  0  0  0  0
  6 22  2  3  0  0  0
  3 14  1  0  0  0  0
 13 14  2  3  0  0  0
 11 22  1  0  0  0  0
 15 18  1  0  0  0  0
 13 16  1  0  0  0  0
  4 13  1  0  0  0  0
  5 11  2  3  0  0  0
  9 18  1  0  0  0  0
  1 23  1  0  0  0  0
  5  9  1  0  0  0  0
  1  5  1  0  0  0  0
  9 21  2  0  0  0  0
  1 24  1  0  0  0  0
 19 21  1  0  0  0  0
  2 21  1  0  0  0  0
  2  4  2  3  0  0  0
  4  7  1  0  0  0  0
  2 10  1  0  0  0  0
M  CHG  1  17   1
M  END
> <Shapegauss>
-134.432159

$$$$
