stable:False satoms:17 tatoms:24 sratio:0.7083333333333334
  -OEChem-07092417353D

 24 23  0     1  0  0  0  0  0999 V2000
    7.5744   -3.3807   26.2526 H   0  0  0  0  0  0  0  0  0  0  0  0
    7.7676   -4.8097   25.2617 H   0  0  0  0  0  0  0  0  0  0  0  0
    9.1832   -3.8529   25.6061 H   0  0  0  0  0  0  0  0  0  0  0  0
    8.1234   -3.7935   25.4191 C   0  0  0  0  0  0  0  0  0  0  0  0
    7.7000   -3.1113   24.2364 O   0  0  0  0  0  0  0  0  0  0  0  0
    8.4325   -2.4056   23.8207 C   0  0  0  0  0  0  0  0  0  0  0  0
    7.7864   -1.3174   22.2815 C   0  0  0  0  0  0  0  0  0  0  0  0
   11.2508   -0.7310   23.8008 C   0  0  0  0  0  0  0  0  0  0  0  0
   10.9354   -0.0675   24.6198 H   0  0  0  0  0  0  0  0  0  0  0  0
   13.4505    0.2957   23.6310 O   0  0  0  0  0  0  0  0  0  0  0  0
   11.5238   -1.7241   24.1766 H   0  0  0  0  0  0  0  0  0  0  0  0
   12.5516   -0.2027   23.5451 C   0  0  0  0  0  0  0  0  0  0  0  0
   10.2211   -0.7176   22.8074 C   0  5  3  0  0  0  0  0  0  0  0  0
    8.9281   -1.4461   22.9547 C   0  0  0  0  0  0  0  0  0  0  0  0
    6.6291   -0.3388   20.5680 O   0  0  0  0  0  0  0  0  0  0  0  0
   10.2820    0.0311   22.0366 H   0  0  0  0  0  0  0  0  0  0  0  0
    8.8109    0.1771   20.7154 N   0  5  0  0  0  0  0  0  0  0  0  0
    8.5243    0.7163   19.9009 H   0  0  0  0  0  0  0  0  0  0  0  0
    7.7676   -0.4506   21.0640 C   0  0  3  0  0  0  0  0  0  0  0  0
    7.0939   -0.1593   18.5405 H   0  0  0  0  0  0  0  0  0  0  0  0
    5.3952    0.0482   18.9409 H   0  0  0  0  0  0  0  0  0  0  0  0
    6.5019    1.3100   19.3547 H   0  0  0  0  0  0  0  0  0  0  0  0
    6.3937    0.2441   19.2745 C   0  0  0  0  0  0  0  0  0  0  0  0
    6.7565   -1.6040   22.4878 H   0  0  0  0  0  0  0  0  0  0  0  0
 20 23  1  0  0  0  0
 21 23  1  0  0  0  0
 22 23  1  0  0  0  0
 15 23  1  0  0  0  0
 17 18  1  0  0  0  0
 15 19  1  0  0  0  0
 17 19  1  0  0  0  0
  7 19  1  0  0  0  0
 13 16  1  0  0  0  0
  7 24  1  0  0  0  0
  7 14  2  0  0  0  0
 13 14  1  0  0  0  0
  8 13  1  0  0  0  0
  6 14  1  0  0  0  0
 10 12  1  0  0  0  0
  8 12  1  0  0  0  0
  8 11  1  0  0  0  0
  8  9  1  0  0  0  0
  5  6  1  0  0  0  0
  4  5  1  0  0  0  0
  2  4  1  0  0  0  0
  3  4  1  0  0  0  0
  1  4  1  0  0  0  0
M  CHG  2  13  -1  17  -1
M  END
> <Shapegauss>
-134.385544

$$$$
