stable:False satoms:17 tatoms:24 sratio:0.7083333333333334
  -OEChem-08052423153D

 33 32  0     1  0  0  0  0  0999 V2000
   -4.7893   -4.4510  -22.4787 H   0  0  0  0  0  0  0  0  0  0  0  0
   -4.4318   -3.4056  -23.8354 H   0  0  0  0  0  0  0  0  0  0  0  0
   -4.1619   -2.7857  -22.2288 H   0  0  0  0  0  0  0  0  0  0  0  0
   -4.8043   -3.4241  -22.8132 C   0  0  0  0  0  0  0  0  0  0  0  0
   -6.1713   -3.0310  -22.9555 O   0  0  0  0  0  0  0  0  0  0  0  0
   -6.5378   -2.3398  -22.1840 C   0  0  0  0  0  0  0  0  0  0  0  0
   -8.4859   -1.9286  -22.2666 C   0  0  0  0  0  0  0  0  0  0  0  0
   -6.3014   -0.5875  -19.4234 C   0  0  0  0  0  0  0  0  0  0  0  0
   -6.3449   -1.4785  -18.7795 H   0  0  0  0  0  0  0  0  0  0  0  0
   -6.0389    0.9309  -17.5400 O   0  0  0  0  0  0  0  0  0  0  0  0
   -5.3180   -0.4874  -19.8975 H   0  0  0  0  0  0  0  0  0  0  0  0
   -6.1948    0.4291  -18.4275 C   0  0  0  0  0  0  0  0  0  0  0  0
   -7.4097   -0.6473  -20.3264 C   0  0  3  0  0  0  0  0  0  0  0  0
   -7.4559   -1.5519  -21.5113 C   0  0  0  0  0  0  0  0  0  0  0  0
  -10.7104   -1.7456  -22.7678 O   0  0  0  0  0  0  0  0  0  0  0  0
   -7.5317    0.3722  -20.7211 H   0  0  0  0  0  0  0  0  0  0  0  0
   -9.9367   -0.3731  -21.1659 N   0  3  0  0  0  0  0  0  0  0  0  0
   -9.0428   -0.1659  -20.7683 H   0  0  0  0  0  0  0  0  0  0  0  0
   -9.8042   -1.2531  -22.0671 C   0  0  3  0  0  0  0  0  0  0  0  0
  -11.8873   -0.0613  -23.1381 H   0  0  0  0  0  0  0  0  0  0  0  0
  -12.5457   -1.5799  -23.7290 H   0  0  0  0  0  0  0  0  0  0  0  0
  -12.5648   -1.2774  -22.0271 H   0  0  0  0  0  0  0  0  0  0  0  0
  -11.9987   -1.1267  -22.9277 C   0  0  0  0  0  0  0  0  0  0  0  0
   -8.6502   -2.7575  -22.9532 H   0  0  0  0  0  0  0  0  0  0  0  0
   -5.7969   -1.5465  -22.3625 H   0  0  0  0  0  0  0  0  0  0  0  0
   -6.2285   -2.9421  -21.3171 H   0  0  0  0  0  0  0  0  0  0  0  0
   -6.2110    1.8568  -17.6648 H   0  0  0  0  0  0  0  0  0  0  0  0
   -7.2230    0.7964  -18.5611 H   0  0  0  0  0  0  0  0  0  0  0  0
   -5.5031    1.0556  -19.0097 H   0  0  0  0  0  0  0  0  0  0  0  0
   -8.2840   -0.9101  -19.7129 H   0  0  0  0  0  0  0  0  0  0  0  0
  -10.5475   -0.7162  -20.4523 H   0  0  0  0  0  0  0  0  0  0  0  0
   -9.5701   -0.4954  -22.8294 H   0  0  0  0  0  0  0  0  0  0  0  0
  -10.3243    0.4575  -21.5656 H   0  0  0  0  0  0  0  0  0  0  0  0
 20 23  1  0  0  0  0
 21 23  1  0  0  0  0
 22 23  1  0  0  0  0
 15 23  1  0  0  0  0
 17 18  1  0  0  0  0
 15 19  1  0  0  0  0
 17 19  1  0  0  0  0
  7 19  1  0  0  0  0
 13 16  1  0  0  0  0
  7 24  1  0  0  0  0
  7 14  2  0  0  0  0
 13 14  1  0  0  0  0
  8 13  1  0  0  0  0
  6 14  1  0  0  0  0
 10 12  1  0  0  0  0
  8 12  1  0  0  0  0
  8 11  1  0  0  0  0
  8  9  1  0  0  0  0
  5  6  1  0  0  0  0
  4  5  1  0  0  0  0
  2  4  1  0  0  0  0
  3  4  1  0  0  0  0
  1  4  1  0  0  0  0
  6 25  1  0  0  0  0
  6 26  1  0  0  0  0
 10 27  1  0  0  0  0
 12 28  1  0  0  0  0
 12 29  1  0  0  0  0
 13 30  1  0  0  0  0
 17 31  1  0  0  0  0
 19 32  1  0  0  0  0
 17 33  1  0  0  0  0
M  CHG  1  17   1
M  END
> <Chemgauss4>
-6.772076

$$$$
