stable:False satoms:17 tatoms:24 sratio:0.7083333333333334
  -OEChem-08052423163D

 33 32  0     1  0  0  0  0  0999 V2000
    4.5393   -4.4510   22.2451 H   0  0  0  0  0  0  0  0  0  0  0  0
    4.1818   -3.4056   23.6017 H   0  0  0  0  0  0  0  0  0  0  0  0
    3.9119   -2.7857   21.9952 H   0  0  0  0  0  0  0  0  0  0  0  0
    4.5543   -3.4241   22.5795 C   0  0  0  0  0  0  0  0  0  0  0  0
    5.9213   -3.0311   22.7218 O   0  0  0  0  0  0  0  0  0  0  0  0
    6.2878   -2.3398   21.9504 C   0  0  0  0  0  0  0  0  0  0  0  0
    8.2359   -1.9286   22.0329 C   0  0  0  0  0  0  0  0  0  0  0  0
    6.0514   -0.5875   19.1897 C   0  0  0  0  0  0  0  0  0  0  0  0
    6.0949   -1.4785   18.5458 H   0  0  0  0  0  0  0  0  0  0  0  0
    5.7889    0.9309   17.3063 O   0  0  0  0  0  0  0  0  0  0  0  0
    5.0680   -0.4874   19.6639 H   0  0  0  0  0  0  0  0  0  0  0  0
    5.9448    0.4291   18.1938 C   0  0  0  0  0  0  0  0  0  0  0  0
    7.1597   -0.6473   20.0928 C   0  0  3  0  0  0  0  0  0  0  0  0
    7.2059   -1.5519   21.2776 C   0  0  0  0  0  0  0  0  0  0  0  0
   10.4604   -1.7456   22.5341 O   0  0  0  0  0  0  0  0  0  0  0  0
    7.2817    0.3722   20.4875 H   0  0  0  0  0  0  0  0  0  0  0  0
    9.6867   -0.3731   20.9323 N   0  3  0  0  0  0  0  0  0  0  0  0
    8.7928   -0.1659   20.5347 H   0  0  0  0  0  0  0  0  0  0  0  0
    9.5542   -1.2531   21.8334 C   0  0  3  0  0  0  0  0  0  0  0  0
   11.6373   -0.0613   22.9044 H   0  0  0  0  0  0  0  0  0  0  0  0
   12.2957   -1.5799   23.4953 H   0  0  0  0  0  0  0  0  0  0  0  0
   12.3148   -1.2774   21.7935 H   0  0  0  0  0  0  0  0  0  0  0  0
   11.7487   -1.1267   22.6941 C   0  0  0  0  0  0  0  0  0  0  0  0
    8.4002   -2.7575   22.7195 H   0  0  0  0  0  0  0  0  0  0  0  0
    5.5469   -1.5465   22.1288 H   0  0  0  0  0  0  0  0  0  0  0  0
    5.9785   -2.9421   21.0834 H   0  0  0  0  0  0  0  0  0  0  0  0
    5.9610    1.8568   17.4311 H   0  0  0  0  0  0  0  0  0  0  0  0
    6.9730    0.7964   18.3274 H   0  0  0  0  0  0  0  0  0  0  0  0
    5.2531    1.0556   18.7761 H   0  0  0  0  0  0  0  0  0  0  0  0
    8.0340   -0.9101   19.4792 H   0  0  0  0  0  0  0  0  0  0  0  0
   10.2975   -0.7162   20.2187 H   0  0  0  0  0  0  0  0  0  0  0  0
    9.3201   -0.4954   22.5957 H   0  0  0  0  0  0  0  0  0  0  0  0
   10.0743    0.4575   21.3320 H   0  0  0  0  0  0  0  0  0  0  0  0
 20 23  1  0  0  0  0
 21 23  1  0  0  0  0
 22 23  1  0  0  0  0
 15 23  1  0  0  0  0
 17 18  1  0  0  0  0
 15 19  1  0  0  0  0
 17 19  1  0  0  0  0
  7 19  1  0  0  0  0
 13 16  1  0  0  0  0
  7 24  1  0  0  0  0
  7 14  2  0  0  0  0
 13 14  1  0  0  0  0
  8 13  1  0  0  0  0
  6 14  1  0  0  0  0
 10 12  1  0  0  0  0
  8 12  1  0  0  0  0
  8 11  1  0  0  0  0
  8  9  1  0  0  0  0
  5  6  1  0  0  0  0
  4  5  1  0  0  0  0
  2  4  1  0  0  0  0
  3  4  1  0  0  0  0
  1  4  1  0  0  0  0
  6 25  1  0  0  0  0
  6 26  1  0  0  0  0
 10 27  1  0  0  0  0
 12 28  1  0  0  0  0
 12 29  1  0  0  0  0
 13 30  1  0  0  0  0
 17 31  1  0  0  0  0
 19 32  1  0  0  0  0
 17 33  1  0  0  0  0
M  CHG  1  17   1
M  END
> <Chemgauss4>
-6.341017

$$$$
