MODEL 1
REMARK VINA RESULT:    -5.537      0.000      0.000
REMARK INTER + INTRA:          -7.628
REMARK INTER:                  -7.156
REMARK INTRA:                  -0.472
REMARK UNBOUND:                -0.472
REMARK  5 active torsions:
REMARK  status: ('A' for Active; 'I' for Inactive)
REMARK    1  A    between atoms: N_5  and  C_7 
REMARK    2  A    between atoms: C_6  and  C_11 
REMARK    3  A    between atoms: C_9  and  C_19 
REMARK    4  A    between atoms: C_12  and  C_19 
REMARK    5  A    between atoms: O_15  and  N_17 
ROOT
HETATM    1  N   UNL     1       8.695  12.034   3.441  1.00  0.00    -0.283 N 
ATOM      2  HN  UNL     1       9.713  12.089   3.396  1.00  0.00     0.188 HD
HETATM    3  N   UNL     1       6.634  11.143   3.311  1.00  0.00    -0.259 N 
HETATM    4  C   UNL     1       6.521  12.320   2.755  1.00  0.00     0.120 C 
HETATM    5  C   UNL     1       7.828  12.909   2.959  1.00  0.00     0.093 C 
HETATM    6  H   UNL     1       8.301  10.252   4.262  1.00  0.00     0.208 HD
HETATM    7  N   UNL     1       8.025  11.143   3.953  1.00  0.00    -0.238 N 
ENDROOT
BRANCH   5   8
HETATM    8  C   UNL     1       8.030  14.259   2.606  1.00  0.00     0.023 C 
HETATM    9  C   UNL     1       7.328  15.211   3.152  1.00  0.00     0.099 C 
HETATM   10 CL   UNL     1       7.080  16.368   3.981  1.00  0.00    -0.096 Cl
BRANCH   8  11
HETATM   11  C   UNL     1       9.032  14.800   1.824  1.00  0.00     0.128 C 
HETATM   12  N   UNL     1      10.196  15.055   2.274  1.00  0.00    -0.278 N 
ATOM     13  HN  UNL     1      10.563  15.890   1.817  1.00  0.00     0.193 HD
BRANCH  12  14
HETATM   14  O   UNL     1      11.069  14.605   3.120  1.00  0.00    -0.286 OA
HETATM   15  C   UNL     1      10.989  15.323   4.313  1.00  0.00     0.237 C 
ENDBRANCH  12  14
ENDBRANCH   8  11
ENDBRANCH   5   8
BRANCH   4  16
HETATM   16  C   UNL     1       5.258  12.696   2.146  1.00  0.00     0.292 C 
HETATM   17  O   UNL     1       4.368  13.290   2.699  1.00  0.00    -0.300 OA
ENDBRANCH   4  16
BRANCH   3  18
HETATM   18  C   UNL     1       5.824  10.022   3.091  1.00  0.00     0.265 C 
HETATM   19 CL   UNL     1       5.733   9.112   4.604  1.00  0.00    -0.107 Cl
ENDBRANCH   3  18
TORSDOF 5
ENDMDL
MODEL 2
REMARK VINA RESULT:    -5.326     31.380     32.940
REMARK INTER + INTRA:          -7.355
REMARK INTER:                  -6.890
REMARK INTRA:                  -0.465
REMARK UNBOUND:                -0.472
REMARK  5 active torsions:
REMARK  status: ('A' for Active; 'I' for Inactive)
REMARK    1  A    between atoms: N_5  and  C_7 
REMARK    2  A    between atoms: C_6  and  C_11 
REMARK    3  A    between atoms: C_9  and  C_19 
REMARK    4  A    between atoms: C_12  and  C_19 
REMARK    5  A    between atoms: O_15  and  N_17 
ROOT
HETATM    1  N   UNL     1       2.805 -17.670   8.452  1.00  0.00    -0.283 N 
ATOM      2  HN  UNL     1       3.227 -16.890   7.949  1.00  0.00     0.188 HD
HETATM    3  N   UNL     1       2.431 -19.791   9.103  1.00  0.00    -0.259 N 
HETATM    4  C   UNL     1       1.240 -19.278   8.950  1.00  0.00     0.120 C 
HETATM    5  C   UNL     1       1.514 -17.889   8.646  1.00  0.00     0.093 C 
HETATM    6  H   UNL     1       4.330 -18.873   8.931  1.00  0.00     0.208 HD
HETATM    7  N   UNL     1       3.389 -18.600   9.000  1.00  0.00    -0.238 N 
ENDROOT
BRANCH   5   8
HETATM    8  C   UNL     1       0.437 -16.985   8.557  1.00  0.00     0.023 C 
HETATM    9  C   UNL     1      -0.501 -17.137   7.665  1.00  0.00     0.099 C 
HETATM   10 CL   UNL     1      -1.828 -17.420   7.171  1.00  0.00    -0.096 Cl
BRANCH   8  11
HETATM   11  C   UNL     1       0.100 -15.964   9.426  1.00  0.00     0.128 C 
HETATM   12  N   UNL     1      -0.240 -16.172  10.635  1.00  0.00    -0.278 N 
ATOM     13  HN  UNL     1      -0.944 -15.487  10.914  1.00  0.00     0.193 HD
BRANCH  12  14
HETATM   14  O   UNL     1       0.011 -16.965  11.629  1.00  0.00    -0.286 OA
HETATM   15  C   UNL     1      -0.621 -16.497  12.782  1.00  0.00     0.237 C 
ENDBRANCH  12  14
ENDBRANCH   8  11
ENDBRANCH   5   8
BRANCH   4  16
HETATM   16  C   UNL     1       0.076 -20.132   9.107  1.00  0.00     0.292 C 
HETATM   17  O   UNL     1      -0.554 -20.622   8.205  1.00  0.00    -0.300 OA
ENDBRANCH   4  16
BRANCH   3  18
HETATM   18  C   UNL     1       2.785 -21.145   9.040  1.00  0.00     0.265 C 
HETATM   19 CL   UNL     1       3.713 -21.395   7.557  1.00  0.00    -0.107 Cl
ENDBRANCH   3  18
TORSDOF 5
ENDMDL
MODEL 3
REMARK VINA RESULT:    -5.072     22.225     24.145
REMARK INTER + INTRA:          -7.027
REMARK INTER:                  -6.419
REMARK INTRA:                  -0.608
REMARK UNBOUND:                -0.472
REMARK  5 active torsions:
REMARK  status: ('A' for Active; 'I' for Inactive)
REMARK    1  A    between atoms: N_5  and  C_7 
REMARK    2  A    between atoms: C_6  and  C_11 
REMARK    3  A    between atoms: C_9  and  C_19 
REMARK    4  A    between atoms: C_12  and  C_19 
REMARK    5  A    between atoms: O_15  and  N_17 
ROOT
HETATM    1  N   UNL     1       5.927  -1.978  21.158  1.00  0.00    -0.283 N 
ATOM      2  HN  UNL     1       5.430  -2.853  21.329  1.00  0.00     0.188 HD
HETATM    3  N   UNL     1       6.890  -0.300  20.011  1.00  0.00    -0.259 N 
HETATM    4  C   UNL     1       7.724  -0.556  20.983  1.00  0.00     0.120 C 
HETATM    5  C   UNL     1       7.024  -1.554  21.765  1.00  0.00     0.093 C 
HETATM    6  H   UNL     1       4.985  -1.131  19.609  1.00  0.00     0.208 HD
HETATM    7  N   UNL     1       5.631  -1.104  20.350  1.00  0.00    -0.238 N 
ENDROOT
BRANCH   5   8
HETATM    8  C   UNL     1       7.576  -1.967  22.994  1.00  0.00     0.023 C 
HETATM    9  C   UNL     1       7.329  -1.317  24.097  1.00  0.00     0.099 C 
HETATM   10 CL   UNL     1       6.772  -1.099  25.411  1.00  0.00    -0.096 Cl
BRANCH   8  11
HETATM   11  C   UNL     1       8.271  -3.127  23.276  1.00  0.00     0.128 C 
HETATM   12  N   UNL     1       7.862  -4.279  22.920  1.00  0.00    -0.278 N 
ATOM     13  HN  UNL     1       8.121  -4.967  23.628  1.00  0.00     0.193 HD
BRANCH  12  14
HETATM   14  O   UNL     1       7.226  -4.868  21.956  1.00  0.00    -0.286 OA
HETATM   15  C   UNL     1       6.058  -5.454  22.446  1.00  0.00     0.237 C 
ENDBRANCH  12  14
ENDBRANCH   8  11
ENDBRANCH   5   8
BRANCH   4  16
HETATM   16  C   UNL     1       8.994   0.145  21.028  1.00  0.00     0.292 C 
HETATM   17  O   UNL     1       9.148   1.284  21.390  1.00  0.00    -0.300 OA
ENDBRANCH   4  16
BRANCH   3  18
HETATM   18  C   UNL     1       7.184   0.294  18.777  1.00  0.00     0.265 C 
HETATM   19 CL   UNL     1       5.686   0.975  18.131  1.00  0.00    -0.107 Cl
ENDBRANCH   3  18
TORSDOF 5
ENDMDL
MODEL 4
REMARK VINA RESULT:    -5.030     22.026     23.567
REMARK INTER + INTRA:          -6.973
REMARK INTER:                  -6.240
REMARK INTRA:                  -0.733
REMARK UNBOUND:                -0.472
REMARK  5 active torsions:
REMARK  status: ('A' for Active; 'I' for Inactive)
REMARK    1  A    between atoms: N_5  and  C_7 
REMARK    2  A    between atoms: C_6  and  C_11 
REMARK    3  A    between atoms: C_9  and  C_19 
REMARK    4  A    between atoms: C_12  and  C_19 
REMARK    5  A    between atoms: O_15  and  N_17 
ROOT
HETATM    1  N   UNL     1       5.898  -1.765  21.785  1.00  0.00    -0.283 N 
ATOM      2  HN  UNL     1       4.990  -1.302  21.757  1.00  0.00     0.188 HD
HETATM    3  N   UNL     1       7.549  -3.103  22.522  1.00  0.00    -0.259 N 
HETATM    4  C   UNL     1       8.151  -1.999  22.172  1.00  0.00     0.120 C 
HETATM    5  C   UNL     1       7.083  -1.208  21.597  1.00  0.00     0.093 C 
HETATM    6  H   UNL     1       5.511  -3.646  22.346  1.00  0.00     0.208 HD
HETATM    7  N   UNL     1       6.116  -2.953  22.002  1.00  0.00    -0.238 N 
ENDROOT
BRANCH   5   8
HETATM    8  C   UNL     1       7.401   0.015  20.972  1.00  0.00     0.023 C 
HETATM    9  C   UNL     1       7.366   0.139  19.675  1.00  0.00     0.099 C 
HETATM   10 CL   UNL     1       6.878   0.611  18.401  1.00  0.00    -0.096 Cl
BRANCH   8  11
HETATM   11  C   UNL     1       7.615   1.248  21.558  1.00  0.00     0.128 C 
HETATM   12  N   UNL     1       8.777   1.674  21.861  1.00  0.00    -0.278 N 
ATOM     13  HN  UNL     1       8.723   2.234  22.713  1.00  0.00     0.193 HD
BRANCH  12  14
HETATM   14  O   UNL     1      10.004   1.633  21.446  1.00  0.00    -0.286 OA
HETATM   15  C   UNL     1      10.856   2.129  22.433  1.00  0.00     0.237 C 
ENDBRANCH  12  14
ENDBRANCH   8  11
ENDBRANCH   5   8
BRANCH   4  16
HETATM   16  C   UNL     1       9.575  -1.861  22.417  1.00  0.00     0.292 C 
HETATM   17  O   UNL     1      10.076  -1.090  23.196  1.00  0.00    -0.300 OA
ENDBRANCH   4  16
BRANCH   3  18
HETATM   18  C   UNL     1       7.998  -4.057  23.445  1.00  0.00     0.265 C 
HETATM   19 CL   UNL     1       7.405  -5.638  22.924  1.00  0.00    -0.107 Cl
ENDBRANCH   3  18
TORSDOF 5
ENDMDL
MODEL 5
REMARK VINA RESULT:    -5.022     21.995     23.670
REMARK INTER + INTRA:          -6.962
REMARK INTER:                  -6.344
REMARK INTRA:                  -0.618
REMARK UNBOUND:                -0.472
REMARK  5 active torsions:
REMARK  status: ('A' for Active; 'I' for Inactive)
REMARK    1  A    between atoms: N_5  and  C_7 
REMARK    2  A    between atoms: C_6  and  C_11 
REMARK    3  A    between atoms: C_9  and  C_19 
REMARK    4  A    between atoms: C_12  and  C_19 
REMARK    5  A    between atoms: O_15  and  N_17 
ROOT
HETATM    1  N   UNL     1       6.083  -2.031  21.469  1.00  0.00    -0.283 N 
ATOM      2  HN  UNL     1       5.753  -2.947  21.772  1.00  0.00     0.188 HD
HETATM    3  N   UNL     1       6.686  -0.372  20.074  1.00  0.00    -0.259 N 
HETATM    4  C   UNL     1       7.599  -0.366  21.007  1.00  0.00     0.120 C 
HETATM    5  C   UNL     1       7.121  -1.361  21.945  1.00  0.00     0.093 C 
HETATM    6  H   UNL     1       4.933  -1.547  19.905  1.00  0.00     0.208 HD
HETATM    7  N   UNL     1       5.602  -1.323  20.590  1.00  0.00    -0.238 N 
ENDROOT
BRANCH   5   8
HETATM    8  C   UNL     1       7.797  -1.523  23.171  1.00  0.00     0.023 C 
HETATM    9  C   UNL     1       7.430  -0.867  24.235  1.00  0.00     0.099 C 
HETATM   10 CL   UNL     1       6.878  -0.687  25.558  1.00  0.00    -0.096 Cl
BRANCH   8  11
HETATM   11  C   UNL     1       8.769  -2.448  23.499  1.00  0.00     0.128 C 
HETATM   12  N   UNL     1       9.935  -2.434  22.987  1.00  0.00    -0.278 N 
ATOM     13  HN  UNL     1      10.271  -3.391  22.879  1.00  0.00     0.193 HD
BRANCH  12  14
HETATM   14  O   UNL     1      10.836  -1.607  22.559  1.00  0.00    -0.286 OA
HETATM   15  C   UNL     1      11.477  -1.001  23.639  1.00  0.00     0.237 C 
ENDBRANCH  12  14
ENDBRANCH   8  11
ENDBRANCH   5   8
BRANCH   4  16
HETATM   16  C   UNL     1       8.731   0.534  20.884  1.00  0.00     0.292 C 
HETATM   17  O   UNL     1       8.756   1.678  21.261  1.00  0.00    -0.300 OA
ENDBRANCH   4  16
BRANCH   3  18
HETATM   18  C   UNL     1       6.811   0.106  18.764  1.00  0.00     0.265 C 
HETATM   19 CL   UNL     1       5.527   1.289  18.491  1.00  0.00    -0.107 Cl
ENDBRANCH   3  18
TORSDOF 5
ENDMDL
MODEL 6
REMARK VINA RESULT:    -5.010     23.465     25.308
REMARK INTER + INTRA:          -6.946
REMARK INTER:                  -6.269
REMARK INTRA:                  -0.677
REMARK UNBOUND:                -0.472
REMARK  5 active torsions:
REMARK  status: ('A' for Active; 'I' for Inactive)
REMARK    1  A    between atoms: N_5  and  C_7 
REMARK    2  A    between atoms: C_6  and  C_11 
REMARK    3  A    between atoms: C_9  and  C_19 
REMARK    4  A    between atoms: C_12  and  C_19 
REMARK    5  A    between atoms: O_15  and  N_17 
ROOT
HETATM    1  N   UNL     1      10.095  -1.854  21.860  1.00  0.00    -0.283 N 
ATOM      2  HN  UNL     1      10.247  -2.673  21.271  1.00  0.00     0.188 HD
HETATM    3  N   UNL     1      10.581  -0.056  23.121  1.00  0.00    -0.259 N 
HETATM    4  C   UNL     1       9.634  -0.672  23.777  1.00  0.00     0.120 C 
HETATM    5  C   UNL     1       9.266  -1.754  22.887  1.00  0.00     0.093 C 
HETATM    6  H   UNL     1      11.429  -0.501  21.234  1.00  0.00     0.208 HD
HETATM    7  N   UNL     1      10.642  -0.760  21.762  1.00  0.00    -0.238 N 
ENDROOT
BRANCH   5   8
HETATM    8  C   UNL     1       8.154  -2.557  23.213  1.00  0.00     0.023 C 
HETATM    9  C   UNL     1       8.307  -3.742  23.733  1.00  0.00     0.099 C 
HETATM   10 CL   UNL     1       8.246  -4.759  24.756  1.00  0.00    -0.096 Cl
BRANCH   8  11
HETATM   11  C   UNL     1       6.817  -2.210  23.214  1.00  0.00     0.128 C 
HETATM   12  N   UNL     1       6.264  -1.591  22.248  1.00  0.00    -0.278 N 
ATOM     13  HN  UNL     1       5.547  -0.963  22.611  1.00  0.00     0.193 HD
BRANCH  12  14
HETATM   14  O   UNL     1       6.311  -1.494  20.956  1.00  0.00    -0.286 OA
HETATM   15  C   UNL     1       6.743  -0.219  20.590  1.00  0.00     0.237 C 
ENDBRANCH  12  14
ENDBRANCH   8  11
ENDBRANCH   5   8
BRANCH   4  16
HETATM   16  C   UNL     1       9.237  -0.174  25.081  1.00  0.00     0.292 C 
HETATM   17  O   UNL     1       9.162  -0.834  26.085  1.00  0.00    -0.300 OA
ENDBRANCH   4  16
BRANCH   3  18
HETATM   18  C   UNL     1      11.543   0.817  23.644  1.00  0.00     0.265 C 
HETATM   19 CL   UNL     1      12.862  -0.160  24.303  1.00  0.00    -0.107 Cl
ENDBRANCH   3  18
TORSDOF 5
ENDMDL
MODEL 7
REMARK VINA RESULT:    -4.948     23.599     24.961
REMARK INTER + INTRA:          -6.867
REMARK INTER:                  -6.263
REMARK INTRA:                  -0.604
REMARK UNBOUND:                -0.472
REMARK  5 active torsions:
REMARK  status: ('A' for Active; 'I' for Inactive)
REMARK    1  A    between atoms: N_5  and  C_7 
REMARK    2  A    between atoms: C_6  and  C_11 
REMARK    3  A    between atoms: C_9  and  C_19 
REMARK    4  A    between atoms: C_12  and  C_19 
REMARK    5  A    between atoms: O_15  and  N_17 
ROOT
HETATM    1  N   UNL     1       8.922   0.723  25.791  1.00  0.00    -0.283 N 
ATOM      2  HN  UNL     1       9.118   1.383  26.543  1.00  0.00     0.188 HD
HETATM    3  N   UNL     1       8.187  -1.146  24.777  1.00  0.00    -0.259 N 
HETATM    4  C   UNL     1       9.353  -0.913  24.235  1.00  0.00     0.120 C 
HETATM    5  C   UNL     1       9.743   0.352  24.822  1.00  0.00     0.093 C 
HETATM    6  H   UNL     1       7.102  -0.005  26.192  1.00  0.00     0.208 HD
HETATM    7  N   UNL     1       7.877   0.109  25.598  1.00  0.00    -0.238 N 
ENDROOT
BRANCH   5   8
HETATM    8  C   UNL     1      10.908   0.991  24.350  1.00  0.00     0.023 C 
HETATM    9  C   UNL     1      12.082   0.442  24.489  1.00  0.00     0.099 C 
HETATM   10 CL   UNL     1      13.306  -0.195  24.064  1.00  0.00    -0.096 Cl
BRANCH   8  11
HETATM   11  C   UNL     1      11.007   2.125  23.568  1.00  0.00     0.128 C 
HETATM   12  N   UNL     1      10.654   2.153  22.345  1.00  0.00    -0.278 N 
ATOM     13  HN  UNL     1      11.270   2.779  21.826  1.00  0.00     0.193 HD
BRANCH  12  14
HETATM   14  O   UNL     1       9.771   1.649  21.541  1.00  0.00    -0.286 OA
HETATM   15  C   UNL     1       8.501   2.120  21.873  1.00  0.00     0.237 C 
ENDBRANCH  12  14
ENDBRANCH   8  11
ENDBRANCH   5   8
BRANCH   4  16
HETATM   16  C   UNL     1       9.897  -1.871  23.290  1.00  0.00     0.292 C 
HETATM   17  O   UNL     1      10.422  -1.594  22.242  1.00  0.00    -0.300 OA
ENDBRANCH   4  16
BRANCH   3  18
HETATM   18  C   UNL     1       7.525  -2.377  24.866  1.00  0.00     0.265 C 
HETATM   19 CL   UNL     1       8.208  -3.264  26.234  1.00  0.00    -0.107 Cl
ENDBRANCH   3  18
TORSDOF 5
ENDMDL
MODEL 8
REMARK VINA RESULT:    -4.940     23.875     25.803
REMARK INTER + INTRA:          -6.856
REMARK INTER:                  -6.194
REMARK INTRA:                  -0.663
REMARK UNBOUND:                -0.472
REMARK  5 active torsions:
REMARK  status: ('A' for Active; 'I' for Inactive)
REMARK    1  A    between atoms: N_5  and  C_7 
REMARK    2  A    between atoms: C_6  and  C_11 
REMARK    3  A    between atoms: C_9  and  C_19 
REMARK    4  A    between atoms: C_12  and  C_19 
REMARK    5  A    between atoms: O_15  and  N_17 
ROOT
HETATM    1  N   UNL     1       9.604  -2.672  23.155  1.00  0.00    -0.283 N 
ATOM      2  HN  UNL     1      10.017  -3.178  23.939  1.00  0.00     0.188 HD
HETATM    3  N   UNL     1       9.134  -0.957  21.777  1.00  0.00    -0.259 N 
HETATM    4  C   UNL     1       7.988  -1.557  21.961  1.00  0.00     0.120 C 
HETATM    5  C   UNL     1       8.345  -2.716  22.752  1.00  0.00     0.093 C 
HETATM    6  H   UNL     1      11.063  -1.487  22.468  1.00  0.00     0.208 HD
HETATM    7  N   UNL     1      10.174  -1.899  22.391  1.00  0.00    -0.238 N 
ENDROOT
BRANCH   5   8
HETATM    8  C   UNL     1       7.359  -3.687  23.022  1.00  0.00     0.023 C 
HETATM    9  C   UNL     1       7.106  -4.645  22.177  1.00  0.00     0.099 C 
HETATM   10 CL   UNL     1       7.069  -6.002  21.682  1.00  0.00    -0.096 Cl
BRANCH   8  11
HETATM   11  C   UNL     1       6.661  -3.897  24.196  1.00  0.00     0.128 C 
HETATM   12  N   UNL     1       7.025  -4.748  25.072  1.00  0.00    -0.278 N 
ATOM     13  HN  UNL     1       6.201  -5.158  25.512  1.00  0.00     0.193 HD
BRANCH  12  14
HETATM   14  O   UNL     1       8.096  -5.264  25.589  1.00  0.00    -0.286 OA
HETATM   15  C   UNL     1       8.562  -4.454  26.625  1.00  0.00     0.237 C 
ENDBRANCH  12  14
ENDBRANCH   8  11
ENDBRANCH   5   8
BRANCH   4  16
HETATM   16  C   UNL     1       6.786  -0.977  21.389  1.00  0.00     0.292 C 
HETATM   17  O   UNL     1       6.098  -1.492  20.546  1.00  0.00    -0.300 OA
ENDBRANCH   4  16
BRANCH   3  18
HETATM   18  C   UNL     1       9.341   0.379  21.412  1.00  0.00     0.265 C 
HETATM   19 CL   UNL     1       9.370   1.348  22.890  1.00  0.00    -0.107 Cl
ENDBRANCH   3  18
TORSDOF 5
ENDMDL
MODEL 9
REMARK VINA RESULT:    -4.863     24.216     25.685
REMARK INTER + INTRA:          -6.756
REMARK INTER:                  -5.962
REMARK INTRA:                  -0.794
REMARK UNBOUND:                -0.472
REMARK  5 active torsions:
REMARK  status: ('A' for Active; 'I' for Inactive)
REMARK    1  A    between atoms: N_5  and  C_7 
REMARK    2  A    between atoms: C_6  and  C_11 
REMARK    3  A    between atoms: C_9  and  C_19 
REMARK    4  A    between atoms: C_12  and  C_19 
REMARK    5  A    between atoms: O_15  and  N_17 
ROOT
HETATM    1  N   UNL     1      23.227   1.270  16.191  1.00  0.00    -0.283 N 
ATOM      2  HN  UNL     1      22.264   1.499  16.436  1.00  0.00     0.188 HD
HETATM    3  N   UNL     1      25.142   1.239  15.012  1.00  0.00    -0.259 N 
HETATM    4  C   UNL     1      24.972   0.003  15.395  1.00  0.00     0.120 C 
HETATM    5  C   UNL     1      23.801   0.079  16.244  1.00  0.00     0.093 C 
HETATM    6  H   UNL     1      24.002   2.964  15.462  1.00  0.00     0.208 HD
HETATM    7  N   UNL     1      24.091   2.041  15.786  1.00  0.00    -0.238 N 
ENDROOT
BRANCH   5   8
HETATM    8  C   UNL     1      23.403  -1.068  16.961  1.00  0.00     0.023 C 
HETATM    9  C   UNL     1      23.356  -1.068  18.263  1.00  0.00     0.099 C 
HETATM   10 CL   UNL     1      22.737  -1.101  19.567  1.00  0.00    -0.096 Cl
BRANCH   8  11
HETATM   11  C   UNL     1      22.867  -2.243  16.470  1.00  0.00     0.128 C 
HETATM   12  N   UNL     1      23.578  -3.265  16.198  1.00  0.00    -0.278 N 
ATOM     13  HN  UNL     1      23.184  -3.750  15.391  1.00  0.00     0.193 HD
BRANCH  12  14
HETATM   14  O   UNL     1      24.636  -3.892  16.606  1.00  0.00    -0.286 OA
HETATM   15  C   UNL     1      24.375  -4.524  17.823  1.00  0.00     0.237 C 
ENDBRANCH  12  14
ENDBRANCH   8  11
ENDBRANCH   5   8
BRANCH   4  16
HETATM   16  C   UNL     1      25.894  -1.016  14.929  1.00  0.00     0.292 C 
HETATM   17  O   UNL     1      25.618  -1.911  14.171  1.00  0.00    -0.300 OA
ENDBRANCH   4  16
BRANCH   3  18
HETATM   18  C   UNL     1      25.878   1.690  13.908  1.00  0.00     0.265 C 
HETATM   19 CL   UNL     1      24.926   1.370  12.453  1.00  0.00    -0.107 Cl
ENDBRANCH   3  18
TORSDOF 5
ENDMDL
