stable:False satoms:18 tatoms:24 sratio:0.75
  -OEChem-08052423503D

 27 28  0     1  0  0  0  0  0999 V2000
   12.5576    5.3082   23.8885 C   0  0  0  0  0  0  0  0  0  0  0  0
   13.0222    6.2267   23.6875 H   0  0  0  0  0  0  0  0  0  0  0  0
   10.8045    5.5486   23.6989 S   0  0  0  0  0  0  0  0  0  0  0  0
   12.7250    5.0219   24.8940 H   0  0  0  0  0  0  0  0  0  0  0  0
   12.8792    4.5481   23.2091 H   0  0  0  0  0  0  0  0  0  0  0  0
   11.0557    2.9356   24.0859 C   0  0  0  0  0  0  0  0  0  0  0  0
    9.4264    1.1028   23.7561 C   0  0  3  0  0  0  0  0  0  0  0  0
   10.2496    3.7786   24.1811 C   0  0  0  0  0  0  0  0  0  0  0  0
    8.9222    3.3296   24.5518 C   0  0  0  0  0  0  0  0  0  0  0  0
    8.2760    3.9697   25.0892 H   0  0  0  0  0  0  0  0  0  0  0  0
    7.4676    1.8849   24.2573 H   0  0  0  0  0  0  0  0  0  0  0  0
    8.4800    2.1378   24.1836 C   0  0  0  0  0  0  0  0  0  0  0  0
    8.8419    0.3516   23.2726 H   0  0  0  0  0  0  0  0  0  0  0  0
   10.9438    1.5865   24.0368 C   0  0  3  0  0  0  0  0  0  0  0  0
   11.3641   -0.7068   23.4045 C   0  0  0  0  0  0  0  0  0  0  0  0
   10.8364    0.4088   23.8133 C   0  0  0  0  0  0  0  0  0  0  0  0
   14.2011   -0.6827   24.9568 H   0  0  0  0  0  0  0  0  0  0  0  0
   12.7113   -0.9616   23.6405 C   0  0  0  0  0  0  0  0  0  0  0  0
   13.3203   -2.1478   23.2274 C   0  0  0  0  0  0  0  0  0  0  0  0
   10.6812   -1.6150   22.7133 F   0  0  0  0  0  0  0  0  0  0  0  0
   13.2393   -2.2400   22.1343 H   0  0  0  0  0  0  0  0  0  0  0  0
   14.3816   -2.1357   23.5165 H   0  0  0  0  0  0  0  0  0  0  0  0
   13.4785   -0.1456   24.4226 C   0  0  0  0  0  0  0  0  0  0  0  0
   13.4497    0.8847   24.5903 H   0  0  0  0  0  0  0  0  0  0  0  0
   12.0712    3.2983   24.0264 H   0  0  0  0  0  0  0  0  0  0  0  0
   10.8459    1.4775   25.1270 H   0  0  0  0  0  0  0  0  0  0  0  0
   12.8198   -3.0026   23.7056 H   0  0  0  0  0  0  0  0  0  0  0  0
 19 22  1  0  0  0  0
 19 21  1  0  0  0  0
 18 19  1  0  0  0  0
 15 20  1  0  0  0  0
 15 18  1  0  0  0  0
 18 23  2  0  0  0  0
 15 16  2  0  0  0  0
  7 13  1  0  0  0  0
 17 23  1  0  0  0  0
 23 24  1  0  0  0  0
  7 16  1  0  0  0  0
 14 16  1  0  0  0  0
  7 14  1  0  0  0  0
  7 12  1  0  0  0  0
  6 14  1  0  0  0  0
 11 12  1  0  0  0  0
  9 12  2  0  0  0  0
  6  8  2  0  0  0  0
  8  9  1  0  0  0  0
  9 10  1  0  0  0  0
  3  8  1  0  0  0  0
  1  5  1  0  0  0  0
  1  3  1  0  0  0  0
  1  4  1  0  0  0  0
  1  2  1  0  0  0  0
  6 25  1  0  0  0  0
 14 26  1  0  0  0  0
 19 27  1  0  0  0  0
M  END
> <Chemgauss4>
-6.959196

$$$$
