stable:False satoms:18 tatoms:24 sratio:0.75
  -OEChem-08052423503D

 27 28  0     1  0  0  0  0  0999 V2000
  -12.6105    5.1456  -23.6917 C   0  0  0  0  0  0  0  0  0  0  0  0
  -13.0750    6.0640  -23.4907 H   0  0  0  0  0  0  0  0  0  0  0  0
  -10.8574    5.3860  -23.5021 S   0  0  0  0  0  0  0  0  0  0  0  0
  -12.7778    4.8592  -24.6972 H   0  0  0  0  0  0  0  0  0  0  0  0
  -12.9320    4.3854  -23.0123 H   0  0  0  0  0  0  0  0  0  0  0  0
  -11.1085    2.7729  -23.8890 C   0  0  0  0  0  0  0  0  0  0  0  0
   -9.4793    0.9401  -23.5593 C   0  0  3  0  0  0  0  0  0  0  0  0
  -10.3024    3.6160  -23.9842 C   0  0  0  0  0  0  0  0  0  0  0  0
   -8.9750    3.1670  -24.3550 C   0  0  0  0  0  0  0  0  0  0  0  0
   -8.3288    3.8070  -24.8924 H   0  0  0  0  0  0  0  0  0  0  0  0
   -7.5204    1.7222  -24.0605 H   0  0  0  0  0  0  0  0  0  0  0  0
   -8.5329    1.9752  -23.9868 C   0  0  0  0  0  0  0  0  0  0  0  0
   -8.8947    0.1890  -23.0758 H   0  0  0  0  0  0  0  0  0  0  0  0
  -10.9967    1.4239  -23.8400 C   0  0  3  0  0  0  0  0  0  0  0  0
  -11.4170   -0.8694  -23.2077 C   0  0  0  0  0  0  0  0  0  0  0  0
  -10.8892    0.2462  -23.6165 C   0  0  0  0  0  0  0  0  0  0  0  0
  -14.2540   -0.8454  -24.7599 H   0  0  0  0  0  0  0  0  0  0  0  0
  -12.7642   -1.1242  -23.4437 C   0  0  0  0  0  0  0  0  0  0  0  0
  -13.3732   -2.3104  -23.0306 C   0  0  0  0  0  0  0  0  0  0  0  0
  -10.7341   -1.7777  -22.5165 F   0  0  0  0  0  0  0  0  0  0  0  0
  -13.2921   -2.4027  -21.9374 H   0  0  0  0  0  0  0  0  0  0  0  0
  -14.4344   -2.2984  -23.3197 H   0  0  0  0  0  0  0  0  0  0  0  0
  -13.5314   -0.3082  -24.2257 C   0  0  0  0  0  0  0  0  0  0  0  0
  -13.5026    0.7221  -24.3935 H   0  0  0  0  0  0  0  0  0  0  0  0
  -12.1240    3.1357  -23.8296 H   0  0  0  0  0  0  0  0  0  0  0  0
  -10.8988    1.3148  -24.9302 H   0  0  0  0  0  0  0  0  0  0  0  0
  -12.8727   -3.1653  -23.5088 H   0  0  0  0  0  0  0  0  0  0  0  0
 19 22  1  0  0  0  0
 19 21  1  0  0  0  0
 18 19  1  0  0  0  0
 15 20  1  0  0  0  0
 15 18  1  0  0  0  0
 18 23  2  0  0  0  0
 15 16  2  0  0  0  0
  7 13  1  0  0  0  0
 17 23  1  0  0  0  0
 23 24  1  0  0  0  0
  7 16  1  0  0  0  0
 14 16  1  0  0  0  0
  7 14  1  0  0  0  0
  7 12  1  0  0  0  0
  6 14  1  0  0  0  0
 11 12  1  0  0  0  0
  9 12  2  0  0  0  0
  6  8  2  0  0  0  0
  8  9  1  0  0  0  0
  9 10  1  0  0  0  0
  3  8  1  0  0  0  0
  1  5  1  0  0  0  0
  1  3  1  0  0  0  0
  1  4  1  0  0  0  0
  1  2  1  0  0  0  0
  6 25  1  0  0  0  0
 14 26  1  0  0  0  0
 19 27  1  0  0  0  0
M  END
> <Chemgauss4>
-6.885434

$$$$
