stable:False satoms:6 tatoms:24 sratio:0.25
  -OEChem-08062414103D

 42 42  0     1  0  0  0  0  0999 V2000
    6.3661   -5.3651   25.8127 C   0  0  0  0  0  0  0  0  0  0  0  0
    7.9756   -4.8370   25.6229 S   0  0  0  0  0  0  0  0  0  0  0  0
    8.8412   -6.0122   25.5186 O   0  0  0  0  0  0  0  0  0  0  0  0
    8.3197   -4.0145   26.7723 O   0  0  0  0  0  0  0  0  0  0  0  0
    8.0325   -3.9682   24.2561 N   0  0  0  0  0  0  0  0  0  0  0  0
    8.8661   -3.2277   23.8696 C   0  0  0  0  0  0  0  0  0  0  0  0
    9.4088   -2.2659   23.3519 C   0  0  0  0  0  0  0  0  0  0  0  0
   10.3299   -1.3365   23.2390 C   0  0  2  0  0  0  0  0  0  0  0  0
   10.9878   -0.4868   24.3839 C   0  0  0  0  0  0  0  0  0  0  0  0
   12.0574   -0.1620   24.4358 C   0  0  0  0  0  0  0  0  0  0  0  0
   13.1625   -0.4501   23.7443 C   0  0  0  0  0  0  0  0  0  0  0  0
   12.7946   -1.5301   22.7435 C   0  0  0  0  0  0  0  0  0  0  0  0
   11.9348   -1.9874   22.5078 C   0  0  0  0  0  0  0  0  0  0  0  0
    9.7962   -0.7675   22.3306 C   0  0  0  0  0  0  0  0  0  0  0  0
    9.1954   -0.0497   21.3929 C   0  0  0  0  0  0  0  0  0  0  0  0
    9.7356    0.9110   21.1056 O   0  0  0  0  0  0  0  0  0  0  0  0
    8.0611   -0.6091   21.0035 N   0  0  0  0  0  0  0  0  0  0  0  0
    7.4324   -0.0878   20.0404 C   0  0  0  0  0  0  0  0  0  0  0  0
    7.5968    0.1121   18.7713 C   0  0  0  0  0  0  0  0  0  0  0  0
    7.2510    0.5274   17.6650 N   0  0  0  0  0  0  0  0  0  0  0  0
    6.1238    1.0345   18.0905 C   0  0  0  0  0  0  0  0  0  0  0  0
    5.6411    1.0677   19.2121 C   0  0  0  0  0  0  0  0  0  0  0  0
    6.0442    0.5794   20.3445 C   0  0  0  0  0  0  0  0  0  0  0  0
    5.4063    0.5722   21.7766 Cl  0  0  0  0  0  0  0  0  0  0  0  0
    6.2816   -5.9618   26.7329 H   0  0  0  0  0  0  0  0  0  0  0  0
    5.6995   -4.4927   25.8790 H   0  0  0  0  0  0  0  0  0  0  0  0
    6.0783   -5.9816   24.9484 H   0  0  0  0  0  0  0  0  0  0  0  0
    7.2026   -3.4110   24.2843 H   0  0  0  0  0  0  0  0  0  0  0  0
   11.1978   -1.8558   22.8064 H   0  0  0  0  0  0  0  0  0  0  0  0
   10.3464   -0.1871   25.1995 H   0  0  0  0  0  0  0  0  0  0  0  0
   12.2373    0.5490   25.2285 H   0  0  0  0  0  0  0  0  0  0  0  0
   13.9473   -0.8160   24.4228 H   0  0  0  0  0  0  0  0  0  0  0  0
   13.5220    0.4459   23.2172 H   0  0  0  0  0  0  0  0  0  0  0  0
   13.6363   -1.8790   22.1637 H   0  0  0  0  0  0  0  0  0  0  0  0
   11.9197   -2.7463   21.7395 H   0  0  0  0  0  0  0  0  0  0  0  0
   11.0230   -1.7214   23.0220 H   0  0  0  0  0  0  0  0  0  0  0  0
    9.0568   -1.5749   22.2240 H   0  0  0  0  0  0  0  0  0  0  0  0
   10.6524   -0.9647   21.6688 H   0  0  0  0  0  0  0  0  0  0  0  0
    7.7099   -1.4258   21.4614 H   0  0  0  0  0  0  0  0  0  0  0  0
    8.5664   -0.3226   18.5780 H   0  0  0  0  0  0  0  0  0  0  0  0
    5.5208    1.5004   17.3252 H   0  0  0  0  0  0  0  0  0  0  0  0
    4.7049    1.6027   19.2723 H   0  0  0  0  0  0  0  0  0  0  0  0
 20 21  2  0  0  0  0
 19 20  1  0  0  0  0
 21 22  1  0  0  0  0
 18 19  2  0  0  0  0
 22 23  2  0  0  0  0
 18 23  1  0  0  0  0
 17 18  1  0  0  0  0
 23 24  1  0  0  0  0
 15 16  2  0  0  0  0
 15 17  1  0  0  0  0
 14 15  1  0  0  0  0
  8 14  1  0  0  0  0
 12 13  2  0  0  0  0
 11 12  1  0  0  0  0
  7  8  1  0  0  0  0
  8  9  1  0  0  0  0
 10 11  1  0  0  0  0
  6  7  3  0  0  0  0
  5  6  1  0  0  0  0
  9 10  2  0  0  0  0
  2  5  1  0  0  0  0
  2  3  2  0  0  0  0
  1  2  1  0  0  0  0
  2  4  2  0  0  0  0
  1 25  1  0  0  0  0
  1 26  1  0  0  0  0
  1 27  1  0  0  0  0
  5 28  1  0  0  0  0
  8 29  1  0  0  0  0
  9 30  1  0  0  0  0
 10 31  1  0  0  0  0
 11 32  1  0  0  0  0
 11 33  1  0  0  0  0
 12 34  1  0  0  0  0
 13 35  1  0  0  0  0
 13 36  1  0  0  0  0
 14 37  1  0  0  0  0
 14 38  1  0  0  0  0
 17 39  1  0  0  0  0
 19 40  1  0  0  0  0
 21 41  1  0  0  0  0
 22 42  1  0  0  0  0
M  END
> <Chemgauss4>
-12.829550

$$$$
