stable:False satoms:6 tatoms:24 sratio:0.25
  -OEChem-08062414103D

 42 42  0     1  0  0  0  0  0999 V2000
   -6.2455   -5.2561  -26.1460 C   0  0  0  0  0  0  0  0  0  0  0  0
   -7.8550   -4.7280  -25.9562 S   0  0  0  0  0  0  0  0  0  0  0  0
   -8.7206   -5.9032  -25.8519 O   0  0  0  0  0  0  0  0  0  0  0  0
   -8.1990   -3.9055  -27.1057 O   0  0  0  0  0  0  0  0  0  0  0  0
   -7.9119   -3.8593  -24.5895 N   0  0  0  0  0  0  0  0  0  0  0  0
   -8.7455   -3.1187  -24.2030 C   0  0  0  0  0  0  0  0  0  0  0  0
   -9.2882   -2.1569  -23.6853 C   0  0  0  0  0  0  0  0  0  0  0  0
  -10.2093   -1.2275  -23.5724 C   0  0  2  0  0  0  0  0  0  0  0  0
  -10.8671   -0.3778  -24.7172 C   0  0  0  0  0  0  0  0  0  0  0  0
  -11.9368   -0.0530  -24.7691 C   0  0  0  0  0  0  0  0  0  0  0  0
  -13.0418   -0.3411  -24.0777 C   0  0  0  0  0  0  0  0  0  0  0  0
  -12.6740   -1.4211  -23.0769 C   0  0  0  0  0  0  0  0  0  0  0  0
  -11.8141   -1.8784  -22.8411 C   0  0  0  0  0  0  0  0  0  0  0  0
   -9.6755   -0.6585  -22.6640 C   0  0  0  0  0  0  0  0  0  0  0  0
   -9.0747    0.0593  -21.7262 C   0  0  0  0  0  0  0  0  0  0  0  0
   -9.6150    1.0200  -21.4390 O   0  0  0  0  0  0  0  0  0  0  0  0
   -7.9404   -0.5001  -21.3368 N   0  0  0  0  0  0  0  0  0  0  0  0
   -7.3118    0.0212  -20.3737 C   0  0  0  0  0  0  0  0  0  0  0  0
   -7.4761    0.2211  -19.1046 C   0  0  0  0  0  0  0  0  0  0  0  0
   -7.1303    0.6364  -17.9984 N   0  0  0  0  0  0  0  0  0  0  0  0
   -6.0032    1.1435  -18.4238 C   0  0  0  0  0  0  0  0  0  0  0  0
   -5.5204    1.1767  -19.5454 C   0  0  0  0  0  0  0  0  0  0  0  0
   -5.9236    0.6884  -20.6778 C   0  0  0  0  0  0  0  0  0  0  0  0
   -5.2856    0.6812  -22.1100 Cl  0  0  0  0  0  0  0  0  0  0  0  0
   -6.1609   -5.8528  -27.0663 H   0  0  0  0  0  0  0  0  0  0  0  0
   -5.5788   -4.3837  -26.2124 H   0  0  0  0  0  0  0  0  0  0  0  0
   -5.9576   -5.8726  -25.2817 H   0  0  0  0  0  0  0  0  0  0  0  0
   -7.0820   -3.3021  -24.6176 H   0  0  0  0  0  0  0  0  0  0  0  0
  -11.0771   -1.7468  -23.1397 H   0  0  0  0  0  0  0  0  0  0  0  0
  -10.2258   -0.0781  -25.5328 H   0  0  0  0  0  0  0  0  0  0  0  0
  -12.1167    0.6580  -25.5619 H   0  0  0  0  0  0  0  0  0  0  0  0
  -13.8266   -0.7070  -24.7561 H   0  0  0  0  0  0  0  0  0  0  0  0
  -13.4014    0.5549  -23.5506 H   0  0  0  0  0  0  0  0  0  0  0  0
  -13.5157   -1.7700  -22.4970 H   0  0  0  0  0  0  0  0  0  0  0  0
  -11.7991   -2.6373  -22.0729 H   0  0  0  0  0  0  0  0  0  0  0  0
  -10.9024   -1.6124  -23.3553 H   0  0  0  0  0  0  0  0  0  0  0  0
   -8.9362   -1.4659  -22.5574 H   0  0  0  0  0  0  0  0  0  0  0  0
  -10.5318   -0.8557  -22.0022 H   0  0  0  0  0  0  0  0  0  0  0  0
   -7.5892   -1.3168  -21.7947 H   0  0  0  0  0  0  0  0  0  0  0  0
   -8.4457   -0.2136  -18.9113 H   0  0  0  0  0  0  0  0  0  0  0  0
   -5.4001    1.6094  -17.6586 H   0  0  0  0  0  0  0  0  0  0  0  0
   -4.5842    1.7117  -19.6056 H   0  0  0  0  0  0  0  0  0  0  0  0
 20 21  2  0  0  0  0
 19 20  1  0  0  0  0
 21 22  1  0  0  0  0
 18 19  2  0  0  0  0
 22 23  2  0  0  0  0
 18 23  1  0  0  0  0
 17 18  1  0  0  0  0
 23 24  1  0  0  0  0
 15 16  2  0  0  0  0
 15 17  1  0  0  0  0
 14 15  1  0  0  0  0
  8 14  1  0  0  0  0
 12 13  2  0  0  0  0
 11 12  1  0  0  0  0
  7  8  1  0  0  0  0
  8  9  1  0  0  0  0
 10 11  1  0  0  0  0
  6  7  3  0  0  0  0
  5  6  1  0  0  0  0
  9 10  2  0  0  0  0
  2  5  1  0  0  0  0
  2  3  2  0  0  0  0
  1  2  1  0  0  0  0
  2  4  2  0  0  0  0
  1 25  1  0  0  0  0
  1 26  1  0  0  0  0
  1 27  1  0  0  0  0
  5 28  1  0  0  0  0
  8 29  1  0  0  0  0
  9 30  1  0  0  0  0
 10 31  1  0  0  0  0
 11 32  1  0  0  0  0
 11 33  1  0  0  0  0
 12 34  1  0  0  0  0
 13 35  1  0  0  0  0
 13 36  1  0  0  0  0
 14 37  1  0  0  0  0
 14 38  1  0  0  0  0
 17 39  1  0  0  0  0
 19 40  1  0  0  0  0
 21 41  1  0  0  0  0
 22 42  1  0  0  0  0
M  END
> <Chemgauss4>
-12.648375

$$$$
