stable:False satoms:7 tatoms:24 sratio:0.2916666666666667
  -OEChem-08062412573D

 42 42  0     1  0  0  0  0  0999 V2000
    6.3188   -5.4146   26.2632 C   0  0  0  0  0  0  0  0  0  0  0  0
    8.0810   -4.7873   26.0994 S   0  0  0  0  0  0  0  0  0  0  0  0
    8.8736   -5.9853   26.0188 O   0  0  0  0  0  0  0  0  0  0  0  0
    8.3714   -3.9605   27.2299 O   0  0  0  0  0  0  0  0  0  0  0  0
    8.0526   -3.9728   24.6925 N   0  0  0  0  0  0  0  0  0  0  0  0
    8.8689   -3.2907   24.2275 C   0  0  0  0  0  0  0  0  0  0  0  0
    9.3650   -2.3994   23.6816 C   0  0  0  0  0  0  0  0  0  0  0  0
   10.3213   -1.5508   23.3872 C   0  0  1  0  0  0  0  0  0  0  0  0
   10.9162   -0.3402   24.6496 C   0  0  0  0  0  0  0  0  0  0  0  0
   11.8721   -0.0806   24.7302 C   0  0  0  0  0  0  0  0  0  0  0  0
   13.0766   -0.5472   23.9130 C   0  0  0  0  0  0  0  0  0  0  0  0
   12.7467   -1.4328   23.1151 C   0  0  0  0  0  0  0  0  0  0  0  0
   11.7572   -1.9361   22.8577 C   0  0  0  0  0  0  0  0  0  0  0  0
    9.6859   -0.9273   22.5855 C   0  0  0  0  0  0  0  0  0  0  0  0
    9.1144   -0.2507   21.5791 C   0  0  0  0  0  0  0  0  0  0  0  0
    9.6138    0.7455   21.2500 O   0  0  0  0  0  0  0  0  0  0  0  0
    8.0238   -0.8662   21.1583 N   0  0  0  0  0  0  0  0  0  0  0  0
    7.3355   -0.3257   20.2675 C   0  0  0  0  0  0  0  0  0  0  0  0
    7.4127   -0.1640   19.0038 C   0  0  0  0  0  0  0  0  0  0  0  0
    7.0030    0.1510   17.8670 N   0  0  0  0  0  0  0  0  0  0  0  0
    5.9072    0.6819   18.3070 C   0  0  0  0  0  0  0  0  0  0  0  0
    5.4758    0.7550   19.4464 C   0  0  0  0  0  0  0  0  0  0  0  0
    5.9172    0.3169   20.5937 C   0  0  0  0  0  0  0  0  0  0  0  0
    5.2602    0.3185   21.9915 Cl  0  0  0  0  0  0  0  0  0  0  0  0
    6.2190   -5.9900   27.1954 H   0  0  0  0  0  0  0  0  0  0  0  0
    5.6261   -4.5603   26.2838 H   0  0  0  0  0  0  0  0  0  0  0  0
    6.0786   -6.0608   25.4061 H   0  0  0  0  0  0  0  0  0  0  0  0
    7.2468   -3.3846   24.7617 H   0  0  0  0  0  0  0  0  0  0  0  0
   10.5071   -0.9297   24.2759 H   0  0  0  0  0  0  0  0  0  0  0  0
   10.6115   -1.0515   23.8962 H   0  0  0  0  0  0  0  0  0  0  0  0
   10.1820    0.0890   25.3154 H   0  0  0  0  0  0  0  0  0  0  0  0
   12.0918    0.6353   25.5085 H   0  0  0  0  0  0  0  0  0  0  0  0
   13.8441   -0.9427   24.5945 H   0  0  0  0  0  0  0  0  0  0  0  0
   13.4871    0.3072   23.3548 H   0  0  0  0  0  0  0  0  0  0  0  0
   13.5766   -1.8113   22.5368 H   0  0  0  0  0  0  0  0  0  0  0  0
   11.8077   -2.7709   22.1744 H   0  0  0  0  0  0  0  0  0  0  0  0
    9.5478   -0.0888   23.2839 H   0  0  0  0  0  0  0  0  0  0  0  0
    8.8312   -1.6152   22.6647 H   0  0  0  0  0  0  0  0  0  0  0  0
    7.7546   -1.7480   21.5456 H   0  0  0  0  0  0  0  0  0  0  0  0
    8.4213   -0.4899   18.7967 H   0  0  0  0  0  0  0  0  0  0  0  0
    5.2789    1.1281   17.5503 H   0  0  0  0  0  0  0  0  0  0  0  0
    4.5404    1.2900   19.5199 H   0  0  0  0  0  0  0  0  0  0  0  0
 20 21  2  0  0  0  0
 19 20  1  0  0  0  0
 21 22  1  0  0  0  0
 18 19  2  0  0  0  0
 22 23  2  0  0  0  0
 18 23  1  0  0  0  0
 17 18  1  0  0  0  0
 23 24  1  0  0  0  0
 15 16  2  0  0  0  0
 15 17  1  0  0  0  0
 14 15  1  0  0  0  0
  8 14  1  0  0  0  0
 12 13  2  0  0  0  0
  8 13  1  0  0  0  0
 11 12  1  0  0  0  0
  7  8  1  0  0  0  0
 10 11  1  0  0  0  0
  6  7  3  0  0  0  0
  5  6  1  0  0  0  0
  9 10  2  0  0  0  0
  2  5  1  0  0  0  0
  2  3  2  0  0  0  0
  1  2  1  0  0  0  0
  2  4  2  0  0  0  0
  1 25  1  0  0  0  0
  1 26  1  0  0  0  0
  1 27  1  0  0  0  0
  5 28  1  0  0  0  0
  8 29  1  0  0  0  0
  9 30  1  0  0  0  0
  9 31  1  0  0  0  0
 10 32  1  0  0  0  0
 11 33  1  0  0  0  0
 11 34  1  0  0  0  0
 12 35  1  0  0  0  0
 13 36  1  0  0  0  0
 14 37  1  0  0  0  0
 14 38  1  0  0  0  0
 17 39  1  0  0  0  0
 19 40  1  0  0  0  0
 21 41  1  0  0  0  0
 22 42  1  0  0  0  0
M  END
> <Chemgauss4>
-13.174473

$$$$
