stable:False satoms:7 tatoms:24 sratio:0.2916666666666667
  -OEChem-08062412573D

 42 42  0     1  0  0  0  0  0999 V2000
   -6.4087   -5.3076  -26.2560 C   0  0  0  0  0  0  0  0  0  0  0  0
   -8.1518   -4.6366  -26.0638 S   0  0  0  0  0  0  0  0  0  0  0  0
   -8.9728   -5.8146  -25.9717 O   0  0  0  0  0  0  0  0  0  0  0  0
   -8.4392   -3.8015  -27.1888 O   0  0  0  0  0  0  0  0  0  0  0  0
   -8.0808   -3.8249  -24.6568 N   0  0  0  0  0  0  0  0  0  0  0  0
   -8.8724   -3.1232  -24.1783 C   0  0  0  0  0  0  0  0  0  0  0  0
   -9.3373   -2.2204  -23.6239 C   0  0  0  0  0  0  0  0  0  0  0  0
  -10.2673   -1.3485  -23.3138 C   0  0  1  0  0  0  0  0  0  0  0  0
  -10.8515   -0.1218  -24.5655 C   0  0  0  0  0  0  0  0  0  0  0  0
  -11.8017    0.1618  -24.6308 C   0  0  0  0  0  0  0  0  0  0  0  0
  -13.0046   -0.2756  -23.7950 C   0  0  0  0  0  0  0  0  0  0  0  0
  -12.6844   -1.1702  -23.0032 C   0  0  0  0  0  0  0  0  0  0  0  0
  -11.7038   -1.6984  -22.7620 C   0  0  0  0  0  0  0  0  0  0  0  0
   -9.6039   -0.7421  -22.5216 C   0  0  0  0  0  0  0  0  0  0  0  0
   -8.9998   -0.0813  -21.5239 C   0  0  0  0  0  0  0  0  0  0  0  0
   -9.4688    0.9267  -21.1861 O   0  0  0  0  0  0  0  0  0  0  0  0
   -7.9184   -0.7245  -21.1208 N   0  0  0  0  0  0  0  0  0  0  0  0
   -7.2029   -0.2025  -20.2406 C   0  0  0  0  0  0  0  0  0  0  0  0
   -7.2560   -0.0404  -18.9757 C   0  0  0  0  0  0  0  0  0  0  0  0
   -6.8207    0.2628  -17.8453 N   0  0  0  0  0  0  0  0  0  0  0  0
   -5.7190    0.7667  -18.3021 C   0  0  0  0  0  0  0  0  0  0  0  0
   -5.3039    0.8304  -19.4480 C   0  0  0  0  0  0  0  0  0  0  0  0
   -5.7743    0.4049  -20.5886 C   0  0  0  0  0  0  0  0  0  0  0  0
   -5.1396    0.3918  -21.9967 Cl  0  0  0  0  0  0  0  0  0  0  0  0
   -6.3381   -5.8842  -27.1901 H   0  0  0  0  0  0  0  0  0  0  0  0
   -5.6952   -4.4710  -26.2868 H   0  0  0  0  0  0  0  0  0  0  0  0
   -6.1713   -5.9608  -25.4033 H   0  0  0  0  0  0  0  0  0  0  0  0
   -7.2617   -3.2570  -24.7382 H   0  0  0  0  0  0  0  0  0  0  0  0
  -10.4514   -0.7218  -24.1988 H   0  0  0  0  0  0  0  0  0  0  0  0
  -10.5529   -0.8414  -23.8177 H   0  0  0  0  0  0  0  0  0  0  0  0
  -10.1174    0.2897  -25.2425 H   0  0  0  0  0  0  0  0  0  0  0  0
  -12.0157    0.8839  -25.4049 H   0  0  0  0  0  0  0  0  0  0  0  0
  -13.7924   -0.6509  -24.4647 H   0  0  0  0  0  0  0  0  0  0  0  0
  -13.3847    0.5881  -23.2297 H   0  0  0  0  0  0  0  0  0  0  0  0
  -13.5142   -1.5285  -22.4122 H   0  0  0  0  0  0  0  0  0  0  0  0
  -11.7645   -2.5325  -22.0786 H   0  0  0  0  0  0  0  0  0  0  0  0
   -9.4558    0.0936  -23.2215 H   0  0  0  0  0  0  0  0  0  0  0  0
   -8.7681   -1.4510  -22.6149 H   0  0  0  0  0  0  0  0  0  0  0  0
   -7.6776   -1.6122  -21.5131 H   0  0  0  0  0  0  0  0  0  0  0  0
   -8.2691   -0.3412  -18.7530 H   0  0  0  0  0  0  0  0  0  0  0  0
   -5.0679    1.1961  -17.5550 H   0  0  0  0  0  0  0  0  0  0  0  0
   -4.3568    1.3419  -19.5359 H   0  0  0  0  0  0  0  0  0  0  0  0
 20 21  2  0  0  0  0
 19 20  1  0  0  0  0
 21 22  1  0  0  0  0
 18 19  2  0  0  0  0
 22 23  2  0  0  0  0
 18 23  1  0  0  0  0
 17 18  1  0  0  0  0
 23 24  1  0  0  0  0
 15 16  2  0  0  0  0
 15 17  1  0  0  0  0
 14 15  1  0  0  0  0
  8 14  1  0  0  0  0
 12 13  2  0  0  0  0
  8 13  1  0  0  0  0
 11 12  1  0  0  0  0
  7  8  1  0  0  0  0
 10 11  1  0  0  0  0
  6  7  3  0  0  0  0
  5  6  1  0  0  0  0
  9 10  2  0  0  0  0
  2  5  1  0  0  0  0
  2  3  2  0  0  0  0
  1  2  1  0  0  0  0
  2  4  2  0  0  0  0
  1 25  1  0  0  0  0
  1 26  1  0  0  0  0
  1 27  1  0  0  0  0
  5 28  1  0  0  0  0
  8 29  1  0  0  0  0
  9 30  1  0  0  0  0
  9 31  1  0  0  0  0
 10 32  1  0  0  0  0
 11 33  1  0  0  0  0
 11 34  1  0  0  0  0
 12 35  1  0  0  0  0
 13 36  1  0  0  0  0
 14 37  1  0  0  0  0
 14 38  1  0  0  0  0
 17 39  1  0  0  0  0
 19 40  1  0  0  0  0
 21 41  1  0  0  0  0
 22 42  1  0  0  0  0
M  END
> <Chemgauss4>
-13.090861

$$$$
