REMARK  4 active torsions:
REMARK  status: ('A' for Active; 'I' for Inactive)
REMARK    1  A    between atoms: C_4  and  C_5 
REMARK    2  A    between atoms: C_5  and  C_6 
REMARK    3  A    between atoms: C_5  and  C_8 
REMARK    4  A    between atoms: C_8  and  C_14 
ROOT
HETATM    1  C   UNL     1       6.658  -0.853  20.303  1.00  0.00     0.026 C 
HETATM    2  C   UNL     1       7.314  -0.022  21.283  1.00  0.00     0.104 C 
HETATM    3  C   UNL     1       7.179   1.303  21.428  1.00  0.00     0.064 C 
HETATM    4  N   UNL     1       7.090   2.447  21.531  1.00  0.00    -0.197 NA
ENDROOT
BRANCH   2   5
HETATM    5  C   UNL     1       8.248  -0.803  22.251  1.00  0.00     0.102 C 
BRANCH   5   6
HETATM    6  C   UNL     1       9.614  -0.697  21.402  1.00  0.00    -0.023 C 
HETATM    7  C   UNL     1       9.704  -0.148  20.268  1.00  0.00     0.008 C 
ENDBRANCH   5   6
BRANCH   5   8
HETATM    8  C   UNL     1       8.876  -0.438  23.662  1.00  0.00     0.192 C 
HETATM    9  O   UNL     1       8.834   0.673  24.091  1.00  0.00    -0.289 OA
BRANCH   8  10
HETATM   10  C   UNL     1       9.445  -1.565  24.296  1.00  0.00     0.123 C 
HETATM   11  O   UNL     1       9.509  -1.457  25.676  1.00  0.00    -0.317 OA
HETATM   12  C   UNL     1       9.754  -2.646  26.191  1.00  0.00     0.166 C 
HETATM   13  C   UNL     1       9.972  -3.535  25.164  1.00  0.00     0.059 C 
HETATM   14 CL   UNL     1       9.976  -5.233  25.282  1.00  0.00    -0.082 Cl
HETATM   15  C   UNL     1      10.070  -2.811  23.990  1.00  0.00     0.067 C 
ENDBRANCH   8  10
ENDBRANCH   5   8
ENDBRANCH   2   5
TORSDOF 4
