stable:False satoms:21 tatoms:24 sratio:0.875
  -OEChem-07092417303D

 24 24  0     1  0  0  0  0  0999 V2000
    6.6577   -0.8532   20.3035 C   0  0  0  0  0  0  0  0  0  0  0  0
    9.7045   -0.1484   20.2676 C   0  0  0  0  0  0  0  0  0  0  0  0
   10.1281   -0.6116   19.3680 H   0  0  0  0  0  0  0  0  0  0  0  0
    7.5882   -1.6924   22.5497 H   0  0  0  0  0  0  0  0  0  0  0  0
    9.5092   -1.4570   25.6759 O   0  0  0  0  0  0  0  0  0  0  0  0
    9.6142   -0.6974   21.4018 C   0  0  0  0  0  0  0  0  0  0  0  0
    9.7692   -2.7650   27.2488 H   0  0  0  0  0  0  0  0  0  0  0  0
    8.2479   -0.8034   22.2514 C   0  0  2  0  0  0  0  0  0  0  0  0
    7.3143   -0.0222   21.2826 C   0  0  3  0  0  0  0  0  0  0  0  0
    9.9757   -5.2327   25.2824 Cl  0  0  0  0  0  0  0  0  0  0  0  0
    5.7308   -1.2654   20.7197 H   0  0  0  0  0  0  0  0  0  0  0  0
    8.8755   -0.4377   23.6622 C   0  0  0  0  0  0  0  0  0  0  0  0
    9.9718   -3.5346   25.1636 C   0  0  0  0  0  0  0  0  0  0  0  0
    9.7537   -2.6455   26.1914 C   0  0  0  0  0  0  0  0  0  0  0  0
    6.3705   -0.2803   19.4128 H   0  0  0  0  0  0  0  0  0  0  0  0
    7.2831   -1.6968   20.0136 H   0  0  0  0  0  0  0  0  0  0  0  0
   10.5777   -3.1237   23.0883 H   0  0  0  0  0  0  0  0  0  0  0  0
    8.8344    0.6728   24.0915 O   0  0  0  0  0  0  0  0  0  0  0  0
    7.1786    1.3032   21.4283 C   0  0  0  0  0  0  0  0  0  0  0  0
   10.4895   -0.9560   21.9517 H   0  0  0  0  0  0  0  0  0  0  0  0
    7.0896    2.4468   21.5312 N   0  0  0  0  0  0  0  0  0  0  0  0
    9.4045    0.8862   20.1245 H   0  0  0  0  0  0  0  0  0  0  0  0
    9.4446   -1.5649   24.2959 C   0  0  0  0  0  0  0  0  0  0  0  0
   10.0705   -2.8109   23.9901 C   0  0  0  0  0  0  0  0  0  0  0  0
  2  3  1  0  0  0  0
  1 15  1  0  0  0  0
  1 16  1  0  0  0  0
  2 22  1  0  0  0  0
  2  6  2  0  0  0  0
  1 11  1  0  0  0  0
  1  9  1  0  0  0  0
  9 19  1  0  0  0  0
  8  9  1  0  0  0  0
  6 20  1  0  0  0  0
  6  8  1  0  0  0  0
 19 21  3  0  0  0  0
  4  8  1  0  0  0  0
  8 12  1  0  0  0  0
 17 24  1  0  0  0  0
 12 18  2  0  0  0  0
 12 23  1  0  0  0  0
 23 24  2  0  0  0  0
 13 24  1  0  0  0  0
  5 23  1  0  0  0  0
 10 13  1  0  0  0  0
 13 14  2  0  0  0  0
  5 14  1  0  0  0  0
  7 14  1  0  0  0  0
M  END
> <Shapegauss>
-121.880501

$$$$
