
 OpenBabel07202414163D

 36 38  0  0  0  0  0  0  0  0999 V2000
   -2.8792    1.6358    4.8591 C   0  0  0  0  0  0  0  0  0  0  0  0
   -3.2556    1.9239    3.4394 C   0  0  0  0  0  0  0  0  0  0  0  0
   -4.5855    1.9739    3.0408 C   0  0  0  0  0  0  0  0  0  0  0  0
   -4.9861    2.2302    1.7763 N   0  0  0  0  0  0  0  0  0  0  0  0
   -4.0168    2.4381    0.8598 C   0  0  0  0  0  0  0  0  0  0  0  0
   -2.6550    2.4289    1.1429 C   0  0  0  0  0  0  0  0  0  0  0  0
   -1.6449    2.6436    0.0483 C   0  0  0  0  0  0  0  0  0  0  0  0
   -0.6640    3.7709    0.3119 C   0  0  0  0  0  0  0  0  0  0  0  0
    0.5007    3.5415    0.6304 O   0  0  0  0  0  0  0  0  0  0  0  0
   -1.2119    5.0356    0.1750 N   0  0  0  0  0  0  0  0  0  0  0  0
   -0.4523    6.2242    0.3240 C   0  0  0  0  0  0  0  0  0  0  0  0
    0.8359    6.3279   -0.2075 C   0  0  0  0  0  0  0  0  0  0  0  0
    1.6063    7.4391   -0.1450 N   0  0  0  0  0  0  0  0  0  0  0  0
    1.0761    8.4914    0.5087 C   0  0  0  0  0  0  0  0  0  0  0  0
   -0.1845    8.5073    1.1054 C   0  0  0  0  0  0  0  0  0  0  0  0
   -0.6484    9.6295    1.8189 C   0  0  0  0  0  0  0  0  0  0  0  0
   -1.8961    9.6147    2.4396 C   0  0  0  0  0  0  0  0  0  0  0  0
   -2.6975    8.4849    2.3497 C   0  0  0  0  0  0  0  0  0  0  0  0
   -2.2536    7.3673    1.6365 C   0  0  0  0  0  0  0  0  0  0  0  0
   -0.9897    7.3483    0.9984 C   0  0  0  0  0  0  0  0  0  0  0  0
   -2.2789    2.1559    2.4638 C   0  0  0  0  0  0  0  0  0  0  0  0
   -3.7613    1.4462    5.4811 H   0  0  0  0  0  0  0  0  0  0  0  0
   -2.3456    2.4905    5.2868 H   0  0  0  0  0  0  0  0  0  0  0  0
   -2.2411    0.7481    4.9113 H   0  0  0  0  0  0  0  0  0  0  0  0
   -5.3955    1.7997    3.7449 H   0  0  0  0  0  0  0  0  0  0  0  0
   -4.3875    2.6127   -0.1473 H   0  0  0  0  0  0  0  0  0  0  0  0
   -2.1439    2.8518   -0.9065 H   0  0  0  0  0  0  0  0  0  0  0  0
   -1.0749    1.7186   -0.1007 H   0  0  0  0  0  0  0  0  0  0  0  0
   -2.2150    5.1081    0.2817 H   0  0  0  0  0  0  0  0  0  0  0  0
    1.2918    5.5052   -0.7531 H   0  0  0  0  0  0  0  0  0  0  0  0
    1.7340    9.3592    0.5588 H   0  0  0  0  0  0  0  0  0  0  0  0
   -0.0256   10.5172    1.9100 H   0  0  0  0  0  0  0  0  0  0  0  0
   -2.2315   10.4792    3.0082 H   0  0  0  0  0  0  0  0  0  0  0  0
   -3.6615    8.4588    2.8497 H   0  0  0  0  0  0  0  0  0  0  0  0
   -2.9053    6.4978    1.6248 H   0  0  0  0  0  0  0  0  0  0  0  0
   -1.2243    2.1084    2.7345 H   0  0  0  0  0  0  0  0  0  0  0  0
  1  2  1  0  0  0  0
  1 22  1  0  0  0  0
  1 23  1  0  0  0  0
  1 24  1  0  0  0  0
  2  3  1  0  0  0  0
  2 21  2  0  0  0  0
  3  4  2  0  0  0  0
  3 25  1  0  0  0  0
  4  5  1  0  0  0  0
  5  6  2  0  0  0  0
  5 26  1  0  0  0  0
  6  7  1  0  0  0  0
  6 21  1  0  0  0  0
  7  8  1  0  0  0  0
  7 27  1  0  0  0  0
  7 28  1  0  0  0  0
  8  9  2  0  0  0  0
  8 10  1  0  0  0  0
 10 11  1  0  0  0  0
 10 29  1  0  0  0  0
 11 12  1  0  0  0  0
 11 20  2  0  0  0  0
 12 13  2  0  0  0  0
 12 30  1  0  0  0  0
 13 14  1  0  0  0  0
 14 15  2  0  0  0  0
 14 31  1  0  0  0  0
 15 16  1  0  0  0  0
 15 20  1  0  0  0  0
 16 17  2  0  0  0  0
 16 32  1  0  0  0  0
 17 18  1  0  0  0  0
 17 33  1  0  0  0  0
 18 19  2  0  0  0  0
 18 34  1  0  0  0  0
 19 20  1  0  0  0  0
 19 35  1  0  0  0  0
 21 36  1  0  0  0  0
M  END
$$$$
