stable:False satoms:17 tatoms:24 sratio:0.7083333333333334
  -OEChem-07092417343D

 24 25  0     1  0  0  0  0  0999 V2000
    7.3425   -4.6936   25.7525 H   0  0  0  0  0  0  0  0  0  0  0  0
    7.8742   -3.8179   25.4023 C   0  0  0  0  0  0  0  0  0  0  0  0
    9.7804   -4.5538   25.2648 H   0  0  0  0  0  0  0  0  0  0  0  0
    9.0890   -3.7473   25.1750 C   0  0  0  0  0  0  0  0  0  0  0  0
    7.2316   -2.9955   25.2608 H   0  0  0  0  0  0  0  0  0  0  0  0
    9.4936   -2.5489   24.5964 C   0  0  0  0  0  0  0  0  0  0  0  0
   11.5659   -1.0266   22.6367 C   0  0  0  0  0  0  0  0  0  0  0  0
   10.3628   -1.8199   24.1317 C   0  0  0  0  0  0  0  0  0  0  0  0
   11.7030   -1.6950   23.8686 O   0  0  0  0  0  0  0  0  0  0  0  0
   11.9147   -0.0149   22.8519 H   0  0  0  0  0  0  0  0  0  0  0  0
   10.0017   -0.1427   23.9770 H   0  0  0  0  0  0  0  0  0  0  0  0
   12.3131   -1.5120   21.9908 H   0  0  0  0  0  0  0  0  0  0  0  0
    9.5673   -1.0549   24.0305 N   0  0  0  0  0  0  0  0  0  0  0  0
   10.3633   -0.9497   21.9072 N   0  0  0  0  0  0  0  0  0  0  0  0
    9.5770   -0.3838   21.1294 C   0  0  0  0  0  0  0  0  0  0  0  0
    9.0428    0.2022   20.2399 N   0  0  0  0  0  0  0  0  0  0  0  0
    6.3838    0.2858   22.4055 C   0  0  0  0  0  0  0  0  0  0  0  0
    6.6807    0.3197   20.0082 C   0  0  2  0  0  0  0  0  0  0  0  0
    7.8652    0.2614   19.4882 C   0  0  0  0  0  0  0  0  0  0  0  0
    7.4144    0.4746   18.3256 N   0  0  0  0  0  0  0  0  0  0  0  0
    6.4862    0.5069   18.0321 H   0  0  0  0  0  0  0  0  0  0  0  0
    5.4901    0.6791   20.0945 O   0  0  0  0  0  0  0  0  0  0  0  0
    6.2724    0.3304   21.1812 C   0  0  0  0  0  0  0  0  0  0  0  0
    5.7683    0.6061   23.5459 S   0  0  0  0  0  0  0  0  0  0  0  0
 20 21  1  0  0  0  0
 19 20  2  0  0  0  0
 18 19  1  0  0  0  0
 16 19  1  0  0  0  0
 18 22  1  0  0  0  0
 18 23  1  0  0  0  0
 22 23  1  0  0  0  0
 15 16  2  3  0  0  0
 14 15  1  0  0  0  0
 17 23  2  0  0  0  0
  7 14  1  0  0  0  0
  7 12  1  0  0  0  0
 17 24  1  0  0  0  0
  7 10  1  0  0  0  0
  7  9  1  0  0  0  0
  8  9  1  0  0  0  0
 11 13  1  0  0  0  0
  8 13  1  0  0  0  0
  6 13  1  0  0  0  0
  6  8  2  0  0  0  0
  4  6  1  0  0  0  0
  3  4  1  0  0  0  0
  2  4  2  0  0  0  0
  2  5  1  0  0  0  0
  1  2  1  0  0  0  0
M  END
> <Shapegauss>
-170.671356

$$$$
