MODEL 1
REMARK VINA RESULT:    -5.019      0.000      0.000
REMARK INTER + INTRA:          -8.486
REMARK INTER:                  -7.660
REMARK INTRA:                  -0.826
REMARK UNBOUND:                -0.826
REMARK  9 active torsions:
REMARK  status: ('A' for Active; 'I' for Inactive)
REMARK    1  A    between atoms: C_2  and  C_3 
REMARK    2  A    between atoms: C_4  and  N_9 
REMARK    3  A    between atoms: C_4  and  O_6 
REMARK    4  A    between atoms: C_5  and  O_6 
REMARK    5  A    between atoms: N_9  and  C_11 
REMARK    6  A    between atoms: C_11  and  N_12 
REMARK    7  A    between atoms: N_12  and  C_16 
REMARK    8  A    between atoms: C_14  and  C_21 
REMARK    9  A    between atoms: C_15  and  C_16 
ROOT
HETATM    1  C   UNL     1       8.068  16.159   1.849  1.00  0.00     0.050 C 
ENDROOT
BRANCH   1   2
HETATM    2  N   UNL     1       7.719  17.071   1.080  1.00  0.00    -0.320 N 
ATOM      3  HN  UNL     1       6.819  16.751   0.723  1.00  0.00     0.172 HD
BRANCH   2   4
HETATM    4  C   UNL     1       7.907  18.312   0.441  1.00  0.00     0.308 C 
BRANCH   4   5
HETATM    5  O   UNL     1       9.042  18.645  -0.323  1.00  0.00    -0.318 OA
BRANCH   5   6
HETATM    6  C   UNL     1       9.727  19.283   0.678  1.00  0.00     0.145 A 
HETATM    7  C   UNL     1      10.029  20.371   1.154  1.00  0.00     0.059 A 
HETATM    8  N   UNL     1      10.228  18.838   1.562  1.00  0.00    -0.235 NA
HETATM    9  H   UNL     1       9.876  17.898   1.691  1.00  0.00     0.136 HD
BRANCH   7  10
HETATM   10  C   UNL     1      10.000  21.762   1.131  1.00  0.00     0.017 C 
HETATM   11  C   UNL     1      11.037  22.286   0.704  1.00  0.00     0.013 C 
ENDBRANCH   7  10
ENDBRANCH   5   6
ENDBRANCH   4   5
ENDBRANCH   2   4
ENDBRANCH   1   2
BRANCH   1  12
HETATM   12  N   UNL     1       8.277  15.130   2.411  1.00  0.00    -0.292 N 
ATOM     13  HN  UNL     1       7.389  14.648   2.544  1.00  0.00     0.178 HD
BRANCH  12  14
HETATM   14  C   UNL     1       9.295  14.339   2.955  1.00  0.00     0.144 C 
HETATM   15  N   UNL     1       9.562  13.175   3.370  1.00  0.00    -0.383 N 
HETATM   16  H   UNL     1      10.386  12.849   3.774  1.00  0.00     0.157 HD
ATOM     17  HN  UNL     1       8.816  12.487   3.267  1.00  0.00     0.157 HD
BRANCH  14  18
HETATM   18  C   UNL     1      10.388  14.818   3.456  1.00  0.00     0.154 A 
HETATM   19  O   UNL     1      11.583  14.801   3.812  1.00  0.00    -0.300 OA
HETATM   20  C   UNL     1      10.617  15.603   4.391  1.00  0.00     0.124 A 
BRANCH  20  21
HETATM   21  C   UNL     1      10.321  16.371   5.305  1.00  0.00     0.121 C 
HETATM   22  S   UNL     1       9.395  17.245   5.707  1.00  0.00    -0.090 SA
ENDBRANCH  20  21
ENDBRANCH  14  18
ENDBRANCH  12  14
ENDBRANCH   1  12
TORSDOF 9
ENDMDL
MODEL 2
REMARK VINA RESULT:    -4.859      3.044      7.270
REMARK INTER + INTRA:          -8.241
REMARK INTER:                  -7.601
REMARK INTRA:                  -0.640
REMARK UNBOUND:                -0.826
REMARK  9 active torsions:
REMARK  status: ('A' for Active; 'I' for Inactive)
REMARK    1  A    between atoms: C_2  and  C_3 
REMARK    2  A    between atoms: C_4  and  N_9 
REMARK    3  A    between atoms: C_4  and  O_6 
REMARK    4  A    between atoms: C_5  and  O_6 
REMARK    5  A    between atoms: N_9  and  C_11 
REMARK    6  A    between atoms: C_11  and  N_12 
REMARK    7  A    between atoms: N_12  and  C_16 
REMARK    8  A    between atoms: C_14  and  C_21 
REMARK    9  A    between atoms: C_15  and  C_16 
ROOT
HETATM    1  C   UNL     1       9.449  15.058   1.956  1.00  0.00     0.050 C 
ENDROOT
BRANCH   1   2
HETATM    2  N   UNL     1       9.235  14.076   2.686  1.00  0.00    -0.320 N 
ATOM      3  HN  UNL     1       9.999  13.439   2.463  1.00  0.00     0.172 HD
BRANCH   2   4
HETATM    4  C   UNL     1       8.495  13.377   3.661  1.00  0.00     0.308 C 
BRANCH   4   5
HETATM    5  O   UNL     1       8.805  12.078   4.109  1.00  0.00    -0.318 OA
BRANCH   5   6
HETATM    6  C   UNL     1       7.779  11.438   3.463  1.00  0.00     0.145 A 
HETATM    7  C   UNL     1       6.793  10.724   3.605  1.00  0.00     0.059 A 
HETATM    8  N   UNL     1       7.488  11.506   2.396  1.00  0.00    -0.235 NA
HETATM    9  H   UNL     1       7.915  12.333   1.998  1.00  0.00     0.136 HD
BRANCH   7  10
HETATM   10  C   UNL     1       5.929   9.983   4.404  1.00  0.00     0.017 C 
HETATM   11  C   UNL     1       5.247   9.155   3.786  1.00  0.00     0.013 C 
ENDBRANCH   7  10
ENDBRANCH   5   6
ENDBRANCH   4   5
ENDBRANCH   2   4
ENDBRANCH   1   2
BRANCH   1  12
HETATM   12  N   UNL     1       9.480  16.119   1.416  1.00  0.00    -0.292 N 
ATOM     13  HN  UNL     1      10.435  16.294   1.103  1.00  0.00     0.178 HD
BRANCH  12  14
HETATM   14  C   UNL     1       8.689  17.214   1.054  1.00  0.00     0.144 C 
HETATM   15  N   UNL     1       7.531  17.543   0.666  1.00  0.00    -0.383 N 
HETATM   16  H   UNL     1       7.203  18.426   0.417  1.00  0.00     0.157 HD
ATOM     17  HN  UNL     1       6.852  16.785   0.605  1.00  0.00     0.157 HD
BRANCH  14  18
HETATM   18  C   UNL     1       9.163  18.388   0.784  1.00  0.00     0.154 A 
HETATM   19  O   UNL     1       9.726  19.259   0.092  1.00  0.00    -0.300 OA
HETATM   20  C   UNL     1       9.731  19.250   1.475  1.00  0.00     0.124 A 
BRANCH  20  21
HETATM   21  C   UNL     1      10.181  19.734   2.513  1.00  0.00     0.121 C 
HETATM   22  S   UNL     1      10.836  19.430   3.636  1.00  0.00    -0.090 SA
ENDBRANCH  20  21
ENDBRANCH  14  18
ENDBRANCH  12  14
ENDBRANCH   1  12
TORSDOF 9
ENDMDL
MODEL 3
REMARK VINA RESULT:    -4.851      2.636      3.689
REMARK INTER + INTRA:          -8.230
REMARK INTER:                  -7.343
REMARK INTRA:                  -0.887
REMARK UNBOUND:                -0.826
REMARK  9 active torsions:
REMARK  status: ('A' for Active; 'I' for Inactive)
REMARK    1  A    between atoms: C_2  and  C_3 
REMARK    2  A    between atoms: C_4  and  N_9 
REMARK    3  A    between atoms: C_4  and  O_6 
REMARK    4  A    between atoms: C_5  and  O_6 
REMARK    5  A    between atoms: N_9  and  C_11 
REMARK    6  A    between atoms: C_11  and  N_12 
REMARK    7  A    between atoms: N_12  and  C_16 
REMARK    8  A    between atoms: C_14  and  C_21 
REMARK    9  A    between atoms: C_15  and  C_16 
ROOT
HETATM    1  C   UNL     1      10.995  16.434   4.562  1.00  0.00     0.050 C 
ENDROOT
BRANCH   1   2
HETATM    2  N   UNL     1      11.318  17.442   5.213  1.00  0.00    -0.320 N 
ATOM      3  HN  UNL     1      11.955  17.077   5.920  1.00  0.00     0.172 HD
BRANCH   2   4
HETATM    4  C   UNL     1      11.270  18.823   5.491  1.00  0.00     0.308 C 
BRANCH   4   5
HETATM    5  O   UNL     1      12.304  19.729   5.186  1.00  0.00    -0.318 OA
BRANCH   5   6
HETATM    6  C   UNL     1      12.157  19.685   3.823  1.00  0.00     0.145 A 
HETATM    7  C   UNL     1      11.463  20.037   2.876  1.00  0.00     0.059 A 
HETATM    8  N   UNL     1      12.861  19.285   3.067  1.00  0.00    -0.235 NA
HETATM    9  H   UNL     1      13.775  19.199   3.492  1.00  0.00     0.136 HD
BRANCH   7  10
HETATM   10  C   UNL     1      10.343  20.679   2.357  1.00  0.00     0.017 C 
HETATM   11  C   UNL     1      10.089  20.388   1.181  1.00  0.00     0.013 C 
ENDBRANCH   7  10
ENDBRANCH   5   6
ENDBRANCH   4   5
ENDBRANCH   2   4
ENDBRANCH   1   2
BRANCH   1  12
HETATM   12  N   UNL     1      10.948  15.444   3.902  1.00  0.00    -0.292 N 
ATOM     13  HN  UNL     1      11.895  15.082   3.795  1.00  0.00     0.178 HD
BRANCH  12  14
HETATM   14  C   UNL     1      10.069  14.595   3.221  1.00  0.00     0.144 C 
HETATM   15  N   UNL     1       9.659  13.401   3.157  1.00  0.00    -0.383 N 
HETATM   16  H   UNL     1       9.030  13.008   2.525  1.00  0.00     0.157 HD
ATOM     17  HN  UNL     1      10.036  12.765   3.859  1.00  0.00     0.157 HD
BRANCH  14  18
HETATM   18  C   UNL     1       9.501  14.898   2.097  1.00  0.00     0.154 A 
HETATM   19  O   UNL     1       9.355  14.908   0.859  1.00  0.00    -0.300 OA
HETATM   20  C   UNL     1       8.909  15.914   1.697  1.00  0.00     0.124 A 
BRANCH  20  21
HETATM   21  C   UNL     1       8.433  17.044   1.796  1.00  0.00     0.121 C 
HETATM   22  S   UNL     1       7.490  17.754   2.420  1.00  0.00    -0.090 SA
ENDBRANCH  20  21
ENDBRANCH  14  18
ENDBRANCH  12  14
ENDBRANCH   1  12
TORSDOF 9
ENDMDL
MODEL 4
REMARK VINA RESULT:    -4.790     24.915     27.670
REMARK INTER + INTRA:          -8.136
REMARK INTER:                  -7.321
REMARK INTRA:                  -0.815
REMARK UNBOUND:                -0.826
REMARK  9 active torsions:
REMARK  status: ('A' for Active; 'I' for Inactive)
REMARK    1  A    between atoms: C_2  and  C_3 
REMARK    2  A    between atoms: C_4  and  N_9 
REMARK    3  A    between atoms: C_4  and  O_6 
REMARK    4  A    between atoms: C_5  and  O_6 
REMARK    5  A    between atoms: N_9  and  C_11 
REMARK    6  A    between atoms: C_11  and  N_12 
REMARK    7  A    between atoms: N_12  and  C_16 
REMARK    8  A    between atoms: C_14  and  C_21 
REMARK    9  A    between atoms: C_15  and  C_16 
ROOT
HETATM    1  C   UNL     1       9.507  -1.949  22.558  1.00  0.00     0.050 C 
ENDROOT
BRANCH   1   2
HETATM    2  N   UNL     1       9.413  -1.196  21.574  1.00  0.00    -0.320 N 
ATOM      3  HN  UNL     1       9.664  -1.796  20.789  1.00  0.00     0.172 HD
BRANCH   2   4
HETATM    4  C   UNL     1       9.143   0.047  20.969  1.00  0.00     0.308 C 
BRANCH   4   5
HETATM    5  O   UNL     1       7.880   0.669  20.966  1.00  0.00    -0.318 OA
BRANCH   5   6
HETATM    6  C   UNL     1       7.552   0.354  19.672  1.00  0.00     0.145 A 
HETATM    7  C   UNL     1       6.705   0.471  18.793  1.00  0.00     0.059 A 
HETATM    8  N   UNL     1       8.180  -0.139  18.903  1.00  0.00    -0.235 NA
HETATM    9  H   UNL     1       9.147  -0.083  19.193  1.00  0.00     0.136 HD
BRANCH   7  10
HETATM   10  C   UNL     1       5.472   0.928  18.342  1.00  0.00     0.017 C 
HETATM   11  C   UNL     1       4.698   1.279  19.243  1.00  0.00     0.013 C 
ENDBRANCH   7  10
ENDBRANCH   5   6
ENDBRANCH   4   5
ENDBRANCH   2   4
ENDBRANCH   1   2
BRANCH   1  12
HETATM   12  N   UNL     1       9.363  -2.764  23.415  1.00  0.00    -0.292 N 
ATOM     13  HN  UNL     1      10.155  -3.404  23.389  1.00  0.00     0.178 HD
BRANCH  12  14
HETATM   14  C   UNL     1       8.505  -3.163  24.445  1.00  0.00     0.144 C 
HETATM   15  N   UNL     1       8.478  -3.558  25.647  1.00  0.00    -0.383 N 
HETATM   16  H   UNL     1       7.710  -3.840  26.176  1.00  0.00     0.157 HD
ATOM     17  HN  UNL     1       9.379  -3.584  26.124  1.00  0.00     0.157 HD
BRANCH  14  18
HETATM   18  C   UNL     1       7.263  -3.483  24.265  1.00  0.00     0.154 A 
HETATM   19  O   UNL     1       6.056  -3.583  24.563  1.00  0.00    -0.300 OA
HETATM   20  C   UNL     1       6.709  -4.435  23.691  1.00  0.00     0.124 A 
BRANCH  20  21
HETATM   21  C   UNL     1       6.668  -5.472  23.031  1.00  0.00     0.121 C 
HETATM   22  S   UNL     1       6.764  -5.951  21.788  1.00  0.00    -0.090 SA
ENDBRANCH  20  21
ENDBRANCH  14  18
ENDBRANCH  12  14
ENDBRANCH   1  12
TORSDOF 9
ENDMDL
MODEL 5
REMARK VINA RESULT:    -4.727     27.260     29.610
REMARK INTER + INTRA:          -8.039
REMARK INTER:                  -7.653
REMARK INTRA:                  -0.386
REMARK UNBOUND:                -0.826
REMARK  9 active torsions:
REMARK  status: ('A' for Active; 'I' for Inactive)
REMARK    1  A    between atoms: C_2  and  C_3 
REMARK    2  A    between atoms: C_4  and  N_9 
REMARK    3  A    between atoms: C_4  and  O_6 
REMARK    4  A    between atoms: C_5  and  O_6 
REMARK    5  A    between atoms: N_9  and  C_11 
REMARK    6  A    between atoms: C_11  and  N_12 
REMARK    7  A    between atoms: N_12  and  C_16 
REMARK    8  A    between atoms: C_14  and  C_21 
REMARK    9  A    between atoms: C_15  and  C_16 
ROOT
HETATM    1  C   UNL     1      23.917  -1.762  20.192  1.00  0.00     0.050 C 
ENDROOT
BRANCH   1   2
HETATM    2  N   UNL     1      23.504  -1.949  21.348  1.00  0.00    -0.320 N 
ATOM      3  HN  UNL     1      23.668  -2.943  21.504  1.00  0.00     0.172 HD
BRANCH   2   4
HETATM    4  C   UNL     1      22.929  -1.515  22.560  1.00  0.00     0.308 C 
BRANCH   4   5
HETATM    5  O   UNL     1      22.138  -2.326  23.396  1.00  0.00    -0.318 OA
BRANCH   5   6
HETATM    6  C   UNL     1      21.380  -1.315  23.928  1.00  0.00     0.145 A 
HETATM    7  C   UNL     1      21.408  -0.259  24.549  1.00  0.00     0.059 A 
HETATM    8  N   UNL     1      20.291  -1.139  23.816  1.00  0.00    -0.235 NA
HETATM    9  H   UNL     1      19.958  -1.676  23.027  1.00  0.00     0.136 HD
BRANCH   7  10
HETATM   10  C   UNL     1      22.102   0.743  25.220  1.00  0.00     0.017 C 
HETATM   11  C   UNL     1      22.952   0.327  26.018  1.00  0.00     0.013 C 
ENDBRANCH   7  10
ENDBRANCH   5   6
ENDBRANCH   4   5
ENDBRANCH   2   4
ENDBRANCH   1   2
BRANCH   1  12
HETATM   12  N   UNL     1      24.060  -1.632  19.016  1.00  0.00    -0.292 N 
ATOM     13  HN  UNL     1      24.859  -2.195  18.725  1.00  0.00     0.178 HD
BRANCH  12  14
HETATM   14  C   UNL     1      23.534  -0.992  17.889  1.00  0.00     0.144 C 
HETATM   15  N   UNL     1      23.029   0.094  17.484  1.00  0.00    -0.383 N 
HETATM   16  H   UNL     1      22.671   0.305  16.603  1.00  0.00     0.157 HD
ATOM     17  HN  UNL     1      22.991   0.847  18.169  1.00  0.00     0.157 HD
BRANCH  14  18
HETATM   18  C   UNL     1      23.188  -1.611  16.806  1.00  0.00     0.154 A 
HETATM   19  O   UNL     1      22.664  -2.517  16.127  1.00  0.00    -0.300 OA
HETATM   20  C   UNL     1      23.738  -1.757  15.702  1.00  0.00     0.124 A 
BRANCH  20  21
HETATM   21  C   UNL     1      24.621  -1.589  14.861  1.00  0.00     0.121 C 
HETATM   22  S   UNL     1      24.902  -0.956  13.720  1.00  0.00    -0.090 SA
ENDBRANCH  20  21
ENDBRANCH  14  18
ENDBRANCH  12  14
ENDBRANCH   1  12
TORSDOF 9
ENDMDL
MODEL 6
REMARK VINA RESULT:    -4.712     36.758     37.747
REMARK INTER + INTRA:          -8.017
REMARK INTER:                  -7.489
REMARK INTRA:                  -0.527
REMARK UNBOUND:                -0.826
REMARK  9 active torsions:
REMARK  status: ('A' for Active; 'I' for Inactive)
REMARK    1  A    between atoms: C_2  and  C_3 
REMARK    2  A    between atoms: C_4  and  N_9 
REMARK    3  A    between atoms: C_4  and  O_6 
REMARK    4  A    between atoms: C_5  and  O_6 
REMARK    5  A    between atoms: N_9  and  C_11 
REMARK    6  A    between atoms: C_11  and  N_12 
REMARK    7  A    between atoms: N_12  and  C_16 
REMARK    8  A    between atoms: C_14  and  C_21 
REMARK    9  A    between atoms: C_15  and  C_16 
ROOT
HETATM    1  C   UNL     1      -0.610 -16.383  11.494  1.00  0.00     0.050 C 
ENDROOT
BRANCH   1   2
HETATM    2  N   UNL     1      -0.306 -16.838  10.379  1.00  0.00    -0.320 N 
ATOM      3  HN  UNL     1      -0.381 -16.031   9.761  1.00  0.00     0.172 HD
BRANCH   2   4
HETATM    4  C   UNL     1       0.089 -17.880   9.515  1.00  0.00     0.308 C 
BRANCH   4   5
HETATM    5  O   UNL     1       0.782 -19.033   9.931  1.00  0.00    -0.318 OA
BRANCH   5   6
HETATM    6  C   UNL     1       1.916 -18.812   9.191  1.00  0.00     0.145 A 
HETATM    7  C   UNL     1       2.895 -19.336   8.673  1.00  0.00     0.059 A 
HETATM    8  N   UNL     1       2.244 -17.875   8.698  1.00  0.00    -0.235 NA
HETATM    9  H   UNL     1       1.449 -17.253   8.627  1.00  0.00     0.136 HD
BRANCH   7  10
HETATM   10  C   UNL     1       3.681 -20.451   8.403  1.00  0.00     0.017 C 
HETATM   11  C   UNL     1       3.046 -21.439   8.012  1.00  0.00     0.013 C 
ENDBRANCH   7  10
ENDBRANCH   5   6
ENDBRANCH   4   5
ENDBRANCH   2   4
ENDBRANCH   1   2
BRANCH   1  12
HETATM   12  N   UNL     1      -1.062 -16.158  12.572  1.00  0.00    -0.292 N 
ATOM     13  HN  UNL     1      -1.803 -15.465  12.474  1.00  0.00     0.178 HD
BRANCH  12  14
HETATM   14  C   UNL     1      -0.949 -16.497  13.925  1.00  0.00     0.144 C 
HETATM   15  N   UNL     1      -0.120 -16.831  14.820  1.00  0.00    -0.383 N 
HETATM   16  H   UNL     1      -0.295 -17.077  15.746  1.00  0.00     0.157 HD
ATOM     17  HN  UNL     1       0.858 -16.845  14.535  1.00  0.00     0.157 HD
BRANCH  14  18
HETATM   18  C   UNL     1      -1.956 -16.809  14.676  1.00  0.00     0.154 A 
HETATM   19  O   UNL     1      -3.031 -17.370  14.967  1.00  0.00    -0.300 OA
HETATM   20  C   UNL     1      -2.609 -16.176  15.522  1.00  0.00     0.124 A 
BRANCH  20  21
HETATM   21  C   UNL     1      -2.888 -15.203  16.221  1.00  0.00     0.121 C 
HETATM   22  S   UNL     1      -3.870 -14.349  16.519  1.00  0.00    -0.090 SA
ENDBRANCH  20  21
ENDBRANCH  14  18
ENDBRANCH  12  14
ENDBRANCH   1  12
TORSDOF 9
ENDMDL
MODEL 7
REMARK VINA RESULT:    -4.706     24.693     27.373
REMARK INTER + INTRA:          -8.007
REMARK INTER:                  -7.441
REMARK INTRA:                  -0.566
REMARK UNBOUND:                -0.826
REMARK  9 active torsions:
REMARK  status: ('A' for Active; 'I' for Inactive)
REMARK    1  A    between atoms: C_2  and  C_3 
REMARK    2  A    between atoms: C_4  and  N_9 
REMARK    3  A    between atoms: C_4  and  O_6 
REMARK    4  A    between atoms: C_5  and  O_6 
REMARK    5  A    between atoms: N_9  and  C_11 
REMARK    6  A    between atoms: C_11  and  N_12 
REMARK    7  A    between atoms: N_12  and  C_16 
REMARK    8  A    between atoms: C_14  and  C_21 
REMARK    9  A    between atoms: C_15  and  C_16 
ROOT
HETATM    1  C   UNL     1       7.397  -1.646  21.822  1.00  0.00     0.050 C 
ENDROOT
BRANCH   1   2
HETATM    2  N   UNL     1       7.832  -0.674  21.183  1.00  0.00    -0.320 N 
ATOM      3  HN  UNL     1       8.737  -0.488  21.614  1.00  0.00     0.172 HD
BRANCH   2   4
HETATM    4  C   UNL     1       7.737   0.309  20.177  1.00  0.00     0.308 C 
BRANCH   4   5
HETATM    5  O   UNL     1       7.854   0.045  18.799  1.00  0.00    -0.318 OA
BRANCH   5   6
HETATM    6  C   UNL     1       6.510   0.017  18.527  1.00  0.00     0.145 A 
HETATM    7  C   UNL     1       5.471   0.666  18.535  1.00  0.00     0.059 A 
HETATM    8  N   UNL     1       5.924  -0.784  18.034  1.00  0.00    -0.235 NA
HETATM    9  H   UNL     1       6.564  -1.398  17.547  1.00  0.00     0.136 HD
BRANCH   7  10
HETATM   10  C   UNL     1       4.764   1.834  18.803  1.00  0.00     0.017 C 
HETATM   11  C   UNL     1       4.155   1.825  19.880  1.00  0.00     0.013 C 
ENDBRANCH   7  10
ENDBRANCH   5   6
ENDBRANCH   4   5
ENDBRANCH   2   4
ENDBRANCH   1   2
BRANCH   1  12
HETATM   12  N   UNL     1       7.173  -2.514  22.606  1.00  0.00    -0.292 N 
ATOM     13  HN  UNL     1       6.383  -2.231  23.184  1.00  0.00     0.178 HD
BRANCH  12  14
HETATM   14  C   UNL     1       7.597  -3.780  23.024  1.00  0.00     0.144 C 
HETATM   15  N   UNL     1       8.489  -4.382  23.689  1.00  0.00    -0.383 N 
HETATM   16  H   UNL     1       8.610  -5.341  23.811  1.00  0.00     0.157 HD
ATOM     17  HN  UNL     1       9.169  -3.786  24.159  1.00  0.00     0.157 HD
BRANCH  14  18
HETATM   18  C   UNL     1       7.162  -4.889  22.517  1.00  0.00     0.154 A 
HETATM   19  O   UNL     1       6.955  -5.728  21.618  1.00  0.00    -0.300 OA
HETATM   20  C   UNL     1       6.155  -5.582  22.737  1.00  0.00     0.124 A 
BRANCH  20  21
HETATM   21  C   UNL     1       5.110  -5.886  23.310  1.00  0.00     0.121 C 
HETATM   22  S   UNL     1       3.781  -5.767  23.243  1.00  0.00    -0.090 SA
ENDBRANCH  20  21
ENDBRANCH  14  18
ENDBRANCH  12  14
ENDBRANCH   1  12
TORSDOF 9
ENDMDL
MODEL 8
REMARK VINA RESULT:    -4.689     27.878     29.105
REMARK INTER + INTRA:          -7.982
REMARK INTER:                  -7.087
REMARK INTRA:                  -0.895
REMARK UNBOUND:                -0.826
REMARK  9 active torsions:
REMARK  status: ('A' for Active; 'I' for Inactive)
REMARK    1  A    between atoms: C_2  and  C_3 
REMARK    2  A    between atoms: C_4  and  N_9 
REMARK    3  A    between atoms: C_4  and  O_6 
REMARK    4  A    between atoms: C_5  and  O_6 
REMARK    5  A    between atoms: N_9  and  C_11 
REMARK    6  A    between atoms: C_11  and  N_12 
REMARK    7  A    between atoms: N_12  and  C_16 
REMARK    8  A    between atoms: C_14  and  C_21 
REMARK    9  A    between atoms: C_15  and  C_16 
ROOT
HETATM    1  C   UNL     1       8.796  -2.046  22.143  1.00  0.00     0.050 C 
ENDROOT
BRANCH   1   2
HETATM    2  N   UNL     1      10.033  -1.926  22.118  1.00  0.00    -0.320 N 
ATOM      3  HN  UNL     1      10.352  -2.810  21.724  1.00  0.00     0.172 HD
BRANCH   2   4
HETATM    4  C   UNL     1      11.227  -1.214  22.346  1.00  0.00     0.308 C 
BRANCH   4   5
HETATM    5  O   UNL     1      12.191  -1.572  23.309  1.00  0.00    -0.318 OA
BRANCH   5   6
HETATM    6  C   UNL     1      12.023  -0.476  24.116  1.00  0.00     0.145 A 
HETATM    7  C   UNL     1      11.210   0.202  24.733  1.00  0.00     0.059 A 
HETATM    8  N   UNL     1      12.801   0.164  24.579  1.00  0.00    -0.235 NA
HETATM    9  H   UNL     1      13.682  -0.333  24.556  1.00  0.00     0.136 HD
BRANCH   7  10
HETATM   10  C   UNL     1       9.905   0.486  25.123  1.00  0.00     0.017 C 
HETATM   11  C   UNL     1       9.289  -0.483  25.586  1.00  0.00     0.013 C 
ENDBRANCH   7  10
ENDBRANCH   5   6
ENDBRANCH   4   5
ENDBRANCH   2   4
ENDBRANCH   1   2
BRANCH   1  12
HETATM   12  N   UNL     1       7.627  -1.978  22.358  1.00  0.00    -0.292 N 
ATOM     13  HN  UNL     1       7.147  -1.793  21.478  1.00  0.00     0.178 HD
BRANCH  12  14
HETATM   14  C   UNL     1       6.670  -2.058  23.376  1.00  0.00     0.144 C 
HETATM   15  N   UNL     1       5.868  -1.368  24.069  1.00  0.00    -0.383 N 
HETATM   16  H   UNL     1       5.296  -1.659  24.802  1.00  0.00     0.157 HD
ATOM     17  HN  UNL     1       5.813  -0.379  23.829  1.00  0.00     0.157 HD
BRANCH  14  18
HETATM   18  C   UNL     1       6.522  -3.088  24.145  1.00  0.00     0.154 A 
HETATM   19  O   UNL     1       6.658  -3.765  25.184  1.00  0.00    -0.300 OA
HETATM   20  C   UNL     1       6.483  -4.310  23.925  1.00  0.00     0.124 A 
BRANCH  20  21
HETATM   21  C   UNL     1       6.488  -5.321  23.224  1.00  0.00     0.121 C 
HETATM   22  S   UNL     1       6.990  -5.839  22.100  1.00  0.00    -0.090 SA
ENDBRANCH  20  21
ENDBRANCH  14  18
ENDBRANCH  12  14
ENDBRANCH   1  12
TORSDOF 9
ENDMDL
MODEL 9
REMARK VINA RESULT:    -4.681     24.911     27.292
REMARK INTER + INTRA:          -7.970
REMARK INTER:                  -6.488
REMARK INTRA:                  -1.482
REMARK UNBOUND:                -0.826
REMARK  9 active torsions:
REMARK  status: ('A' for Active; 'I' for Inactive)
REMARK    1  A    between atoms: C_2  and  C_3 
REMARK    2  A    between atoms: C_4  and  N_9 
REMARK    3  A    between atoms: C_4  and  O_6 
REMARK    4  A    between atoms: C_5  and  O_6 
REMARK    5  A    between atoms: N_9  and  C_11 
REMARK    6  A    between atoms: C_11  and  N_12 
REMARK    7  A    between atoms: N_12  and  C_16 
REMARK    8  A    between atoms: C_14  and  C_21 
REMARK    9  A    between atoms: C_15  and  C_16 
ROOT
HETATM    1  C   UNL     1       6.358  -1.889  22.011  1.00  0.00     0.050 C 
ENDROOT
BRANCH   1   2
HETATM    2  N   UNL     1       6.763  -2.484  23.024  1.00  0.00    -0.320 N 
ATOM      3  HN  UNL     1       6.023  -3.159  23.217  1.00  0.00     0.172 HD
BRANCH   2   4
HETATM    4  C   UNL     1       7.702  -2.719  24.047  1.00  0.00     0.308 C 
BRANCH   4   5
HETATM    5  O   UNL     1       8.937  -3.369  23.854  1.00  0.00    -0.318 OA
BRANCH   5   6
HETATM    6  C   UNL     1       9.614  -2.281  23.364  1.00  0.00     0.145 A 
HETATM    7  C   UNL     1      10.222  -1.259  23.661  1.00  0.00     0.059 A 
HETATM    8  N   UNL     1       9.909  -2.069  22.317  1.00  0.00    -0.235 NA
HETATM    9  H   UNL     1       9.858  -2.929  21.787  1.00  0.00     0.136 HD
BRANCH   7  10
HETATM   10  C   UNL     1      10.706  -0.359  24.603  1.00  0.00     0.017 C 
HETATM   11  C   UNL     1       9.832   0.334  25.142  1.00  0.00     0.013 C 
ENDBRANCH   7  10
ENDBRANCH   5   6
ENDBRANCH   4   5
ENDBRANCH   2   4
ENDBRANCH   1   2
BRANCH   1  12
HETATM   12  N   UNL     1       6.215  -1.216  21.038  1.00  0.00    -0.292 N 
ATOM     13  HN  UNL     1       5.265  -1.347  20.692  1.00  0.00     0.178 HD
BRANCH  12  14
HETATM   14  C   UNL     1       6.872  -0.312  20.198  1.00  0.00     0.144 C 
HETATM   15  N   UNL     1       6.928   0.107  19.005  1.00  0.00    -0.383 N 
HETATM   16  H   UNL     1       7.541   0.758  18.620  1.00  0.00     0.157 HD
ATOM     17  HN  UNL     1       6.242  -0.290  18.364  1.00  0.00     0.157 HD
BRANCH  14  18
HETATM   18  C   UNL     1       7.974   0.291  20.510  1.00  0.00     0.154 A 
HETATM   19  O   UNL     1       9.203   0.401  20.688  1.00  0.00    -0.300 OA
HETATM   20  C   UNL     1       8.256   1.151  21.361  1.00  0.00     0.124 A 
BRANCH  20  21
HETATM   21  C   UNL     1       8.019   1.946  22.269  1.00  0.00     0.121 C 
HETATM   22  S   UNL     1       7.653   3.207  22.515  1.00  0.00    -0.090 SA
ENDBRANCH  20  21
ENDBRANCH  14  18
ENDBRANCH  12  14
ENDBRANCH   1  12
TORSDOF 9
ENDMDL
