REMARK  9 active torsions:
REMARK  status: ('A' for Active; 'I' for Inactive)
REMARK    1  A    between atoms: C_2  and  C_3 
REMARK    2  A    between atoms: C_4  and  N_9 
REMARK    3  A    between atoms: C_4  and  O_6 
REMARK    4  A    between atoms: C_5  and  O_6 
REMARK    5  A    between atoms: N_9  and  C_11 
REMARK    6  A    between atoms: C_11  and  N_12 
REMARK    7  A    between atoms: N_12  and  C_16 
REMARK    8  A    between atoms: C_14  and  C_21 
REMARK    9  A    between atoms: C_15  and  C_16 
ROOT
HETATM    1  C   UNL     1       9.577  -0.384  21.129  1.00  0.00     0.050 C 
ENDROOT
BRANCH   1   2
HETATM    2  N   UNL     1      10.363  -0.950  21.907  1.00  0.00    -0.320 N 
ATOM      3  HN  UNL     1       9.884  -1.819  22.142  1.00  0.00     0.172 HD
BRANCH   2   4
HETATM    4  C   UNL     1      11.566  -1.027  22.637  1.00  0.00     0.308 C 
BRANCH   4   5
HETATM    5  O   UNL     1      11.703  -1.695  23.869  1.00  0.00    -0.318 OA
BRANCH   5   6
HETATM    6  C   UNL     1      10.363  -1.820  24.132  1.00  0.00     0.145 A 
HETATM    7  C   UNL     1       9.494  -2.549  24.596  1.00  0.00     0.059 A 
HETATM    8  N   UNL     1       9.567  -1.055  24.030  1.00  0.00    -0.235 NA
HETATM    9  H   UNL     1      10.002  -0.143  23.977  1.00  0.00     0.136 HD
BRANCH   7  10
HETATM   10  C   UNL     1       9.089  -3.747  25.175  1.00  0.00     0.017 C 
HETATM   11  C   UNL     1       7.874  -3.818  25.402  1.00  0.00     0.013 C 
ENDBRANCH   7  10
ENDBRANCH   5   6
ENDBRANCH   4   5
ENDBRANCH   2   4
ENDBRANCH   1   2
BRANCH   1  12
HETATM   12  N   UNL     1       9.043   0.202  20.240  1.00  0.00    -0.292 N 
ATOM     13  HN  UNL     1       9.677   0.926  19.904  1.00  0.00     0.178 HD
BRANCH  12  14
HETATM   14  C   UNL     1       7.865   0.261  19.488  1.00  0.00     0.144 C 
HETATM   15  N   UNL     1       7.414   0.475  18.326  1.00  0.00    -0.383 N 
HETATM   16  H   UNL     1       6.486   0.507  18.032  1.00  0.00     0.157 HD
ATOM     17  HN  UNL     1       8.114   0.635  17.602  1.00  0.00     0.157 HD
BRANCH  14  18
HETATM   18  C   UNL     1       6.681   0.320  20.008  1.00  0.00     0.154 A 
HETATM   19  O   UNL     1       5.490   0.679  20.095  1.00  0.00    -0.300 OA
HETATM   20  C   UNL     1       6.272   0.330  21.181  1.00  0.00     0.124 A 
BRANCH  20  21
HETATM   21  C   UNL     1       6.384   0.286  22.405  1.00  0.00     0.121 C 
HETATM   22  S   UNL     1       5.768   0.606  23.546  1.00  0.00    -0.090 SA
ENDBRANCH  20  21
ENDBRANCH  14  18
ENDBRANCH  12  14
ENDBRANCH   1  12
TORSDOF 9
