stable:False satoms:12 tatoms:24 sratio:0.5
  -OEChem-07092417503D

 24 25  0     1  0  0  0  0  0999 V2000
    6.6205   -4.8608   26.4574 C   0  0  0  0  0  0  0  0  0  0  0  0
    8.2041   -4.3062   26.1215 S   0  0  0  0  0  0  0  0  0  0  0  0
    9.0623   -5.4691   26.0613 O   0  0  0  0  0  0  0  0  0  0  0  0
    8.6009   -3.4226   27.1783 O   0  0  0  0  0  0  0  0  0  0  0  0
    8.1118   -3.5999   24.6992 N   0  0  0  0  0  0  0  0  0  0  0  0
    9.0144   -2.9450   24.1348 C   0  0  0  0  0  0  0  0  0  0  0  0
    9.4407   -1.9670   23.4783 C   0  0  0  0  0  0  0  0  0  0  0  0
   10.3377   -1.1105   23.2892 C   0  0  1  0  0  0  0  0  0  0  0  0
   11.0351    0.0139   24.2886 C   0  0  0  0  0  0  0  0  0  0  0  0
   12.0465    0.3284   24.2549 C   0  0  0  0  0  0  0  0  0  0  0  0
   13.1871   -0.1350   23.4607 C   0  0  0  0  0  0  0  0  0  0  0  0
   12.7485   -1.2703   22.6351 C   0  0  0  0  0  0  0  0  0  0  0  0
   11.7980   -1.7076   22.5432 C   0  0  0  0  0  0  0  0  0  0  0  0
    9.7333   -0.5652   22.3458 C   0  0  0  0  0  0  0  0  0  0  0  0
    9.0622    0.0215   21.3720 C   0  0  0  0  0  0  0  0  0  0  0  0
    9.5864    0.9383   20.9523 O   0  0  0  0  0  0  0  0  0  0  0  0
    7.9181   -0.5794   21.0910 N   0  0  0  0  0  0  0  0  0  0  0  0
    7.1933   -0.1009   20.1427 C   0  0  0  0  0  0  0  0  0  0  0  0
    7.2250    0.0131   18.8598 C   0  0  0  0  0  0  0  0  0  0  0  0
    6.7561    0.3395   17.7528 N   0  0  0  0  0  0  0  0  0  0  0  0
    5.5741    0.8993   18.2659 C   0  0  0  0  0  0  0  0  0  0  0  0
    5.2496    0.9818   19.4091 C   0  0  0  0  0  0  0  0  0  0  0  0
    5.7794    0.5725   20.5440 C   0  0  0  0  0  0  0  0  0  0  0  0
    5.2988    0.6410   21.9589 C   0  0  0  0  0  0  0  0  0  0  0  0
 20 21  2  0  0  0  0
 19 20  1  0  0  0  0
 21 22  1  0  0  0  0
 18 19  2  0  0  0  0
 22 23  2  0  0  0  0
 18 23  1  0  0  0  0
 17 18  1  0  0  0  0
 23 24  1  0  0  0  0
 15 16  2  0  0  0  0
 15 17  1  0  0  0  0
 14 15  1  0  0  0  0
  8 14  1  0  0  0  0
 12 13  1  0  0  0  0
  8 13  1  0  0  0  0
 11 12  2  0  0  0  0
  7  8  1  0  0  0  0
  8  9  1  0  0  0  0
 10 11  1  0  0  0  0
  6  7  2  3  0  0  0
  5  6  1  0  0  0  0
  9 10  2  0  0  0  0
  2  5  1  0  0  0  0
  2  3  2  0  0  0  0
  1  2  1  0  0  0  0
  2  4  2  0  0  0  0
M  END
> <Shapegauss>
-285.598053

$$$$
