REMARK  6 active torsions:
REMARK  status: ('A' for Active; 'I' for Inactive)
REMARK    1  A    between atoms: S_2  and  N_5 
REMARK    2  A    between atoms: N_5  and  C_7 
REMARK    3  A    between atoms: C_8  and  C_9 
REMARK    4  A    between atoms: C_9  and  C_15 
REMARK    5  A    between atoms: C_15  and  C_16 
REMARK       I    between atoms: C_16  and  N_18 
REMARK    6  A    between atoms: N_18  and  C_20 
ROOT
HETATM    1  C   UNL     1      10.338  -1.111  23.289  1.00  0.00     0.075 C 
HETATM    2  C   UNL     1      11.035   0.014  24.289  1.00  0.00    -0.000 C 
HETATM    3  C   UNL     1      12.046   0.328  24.255  1.00  0.00    -0.025 C 
HETATM    4  C   UNL     1      13.187  -0.135  23.461  1.00  0.00     0.054 C 
HETATM    5  C   UNL     1      12.748  -1.270  22.635  1.00  0.00    -0.025 C 
HETATM    6  C   UNL     1      11.798  -1.708  22.543  1.00  0.00    -0.000 C 
ENDROOT
BRANCH   1   7
HETATM    7  C   UNL     1       9.441  -1.967  23.478  1.00  0.00     0.021 C 
HETATM    8  C   UNL     1       9.014  -2.945  24.135  1.00  0.00     0.098 C 
BRANCH   8   9
HETATM    9  N   UNL     1       8.112  -3.600  24.699  1.00  0.00    -0.296 N 
ATOM     10  HN  UNL     1       7.229  -3.691  24.197  1.00  0.00     0.177 HD
BRANCH   9  11
HETATM   11  S   UNL     1       8.204  -4.306  26.122  1.00  0.00     0.226 S 
HETATM   12  C   UNL     1       6.620  -4.861  26.457  1.00  0.00     0.186 C 
HETATM   13  O   UNL     1       9.062  -5.469  26.061  1.00  0.00    -0.206 OA
HETATM   14  O   UNL     1       8.601  -3.423  27.178  1.00  0.00    -0.206 OA
ENDBRANCH   9  11
ENDBRANCH   8   9
ENDBRANCH   1   7
BRANCH   1  15
HETATM   15  C   UNL     1       9.733  -0.565  22.346  1.00  0.00    -0.061 C 
BRANCH  15  16
HETATM   16  C   UNL     1       9.062   0.021  21.372  1.00  0.00     0.290 C 
HETATM   17  O   UNL     1       9.586   0.938  20.952  1.00  0.00    -0.259 OA
HETATM   18  N   UNL     1       7.918  -0.579  21.091  1.00  0.00    -0.315 N 
ATOM     19  HN  UNL     1       7.618  -1.402  21.614  1.00  0.00     0.170 HD
BRANCH  18  20
HETATM   20  C   UNL     1       7.193  -0.101  20.143  1.00  0.00     0.057 A 
HETATM   21  C   UNL     1       7.225   0.013  18.860  1.00  0.00     0.117 A 
HETATM   22  N   UNL     1       6.756   0.340  17.753  1.00  0.00    -0.373 N 
HETATM   23  C   UNL     1       5.574   0.899  18.266  1.00  0.00     0.088 A 
ATOM     24  HN  UNL     1       7.109   0.237  16.802  1.00  0.00     0.164 HD
HETATM   25  C   UNL     1       5.250   0.982  19.409  1.00  0.00     0.026 A 
HETATM   26  C   UNL     1       5.779   0.573  20.544  1.00  0.00    -0.033 A 
HETATM   27  C   UNL     1       5.299   0.641  21.959  1.00  0.00     0.050 C 
ENDBRANCH  18  20
ENDBRANCH  15  16
ENDBRANCH   1  15
TORSDOF 6
