MODEL 1
REMARK VINA RESULT:    -7.338      0.000      0.000
REMARK INTER + INTRA:         -11.056
REMARK INTER:                  -9.912
REMARK INTRA:                  -1.143
REMARK UNBOUND:                -1.143
REMARK  6 active torsions:
REMARK  status: ('A' for Active; 'I' for Inactive)
REMARK    1  A    between atoms: S_2  and  N_5 
REMARK    2  A    between atoms: N_5  and  C_7 
REMARK    3  A    between atoms: C_8  and  C_9 
REMARK    4  A    between atoms: C_9  and  C_15 
REMARK    5  A    between atoms: C_15  and  C_16 
REMARK       I    between atoms: C_16  and  N_18 
REMARK    6  A    between atoms: N_18  and  C_20 
ROOT
HETATM    1  C   UNL     1       9.621  -1.518  23.360  1.00  0.00     0.075 C 
HETATM    2  C   UNL     1       9.720  -0.468  24.640  1.00  0.00    -0.000 C 
HETATM    3  C   UNL     1      10.580   0.084  24.921  1.00  0.00    -0.025 C 
HETATM    4  C   UNL     1      11.956   0.072  24.417  1.00  0.00     0.054 C 
HETATM    5  C   UNL     1      12.059  -0.958  23.373  1.00  0.00    -0.025 C 
HETATM    6  C   UNL     1      11.321  -1.588  22.973  1.00  0.00    -0.000 C 
ENDROOT
BRANCH   1   7
HETATM    7  C   UNL     1       8.986  -2.586  23.193  1.00  0.00     0.021 C 
HETATM    8  C   UNL     1       8.243  -3.477  23.667  1.00  0.00     0.098 C 
BRANCH   8   9
HETATM    9  N   UNL     1       7.290  -4.283  23.606  1.00  0.00    -0.296 N 
ATOM     10  HN  UNL     1       7.001  -4.718  24.482  1.00  0.00     0.177 HD
BRANCH   9  11
HETATM   11  S   UNL     1       6.485  -4.698  22.298  1.00  0.00     0.226 S 
HETATM   12  C   UNL     1       5.066  -5.471  22.864  1.00  0.00     0.186 C 
HETATM   13  O   UNL     1       6.069  -3.525  21.561  1.00  0.00    -0.206 OA
HETATM   14  O   UNL     1       7.189  -5.618  21.455  1.00  0.00    -0.206 OA
ENDBRANCH   9  11
ENDBRANCH   8   9
ENDBRANCH   1   7
BRANCH   1  15
HETATM   15  C   UNL     1       9.119  -0.967  22.361  1.00  0.00    -0.061 C 
BRANCH  15  16
HETATM   16  C   UNL     1       8.553  -0.403  21.310  1.00  0.00     0.290 C 
HETATM   17  O   UNL     1       9.264   0.255  20.714  1.00  0.00    -0.259 OA
HETATM   18  N   UNL     1       7.277  -0.717  21.172  1.00  0.00    -0.315 N 
ATOM     19  HN  UNL     1       6.814  -1.327  21.845  1.00  0.00     0.170 HD
BRANCH  18  20
HETATM   20  C   UNL     1       6.633  -0.237  20.168  1.00  0.00     0.057 A 
HETATM   21  C   UNL     1       6.307  -0.581  18.970  1.00  0.00     0.117 A 
HETATM   22  N   UNL     1       5.742  -0.414  17.872  1.00  0.00    -0.373 N 
HETATM   23  C   UNL     1       5.239   0.863  18.170  1.00  0.00     0.088 A 
ATOM     24  HN  UNL     1       5.669  -1.003  17.042  1.00  0.00     0.164 HD
HETATM   25  C   UNL     1       5.386   1.481  19.177  1.00  0.00     0.026 A 
HETATM   26  C   UNL     1       5.967   1.227  20.332  1.00  0.00    -0.033 A 
HETATM   27  C   UNL     1       6.068   2.013  21.601  1.00  0.00     0.050 C 
ENDBRANCH  18  20
ENDBRANCH  15  16
ENDBRANCH   1  15
TORSDOF 6
ENDMDL
MODEL 2
REMARK VINA RESULT:    -6.930      2.624      6.187
REMARK INTER + INTRA:         -10.504
REMARK INTER:                 -10.051
REMARK INTRA:                  -0.453
REMARK UNBOUND:                -1.143
REMARK  6 active torsions:
REMARK  status: ('A' for Active; 'I' for Inactive)
REMARK    1  A    between atoms: S_2  and  N_5 
REMARK    2  A    between atoms: N_5  and  C_7 
REMARK    3  A    between atoms: C_8  and  C_9 
REMARK    4  A    between atoms: C_9  and  C_15 
REMARK    5  A    between atoms: C_15  and  C_16 
REMARK       I    between atoms: C_16  and  N_18 
REMARK    6  A    between atoms: N_18  and  C_20 
ROOT
HETATM    1  C   UNL     1       6.632  -3.167  22.720  1.00  0.00     0.075 C 
HETATM    2  C   UNL     1       5.714  -3.965  23.848  1.00  0.00    -0.000 C 
HETATM    3  C   UNL     1       5.581  -5.015  23.905  1.00  0.00    -0.025 C 
HETATM    4  C   UNL     1       6.017  -6.104  23.028  1.00  0.00     0.054 C 
HETATM    5  C   UNL     1       6.711  -5.519  21.870  1.00  0.00    -0.025 C 
HETATM    6  C   UNL     1       6.929  -4.515  21.653  1.00  0.00    -0.000 C 
ENDROOT
BRANCH   1   7
HETATM    7  C   UNL     1       6.497  -2.054  22.157  1.00  0.00     0.021 C 
HETATM    8  C   UNL     1       6.372  -1.397  21.097  1.00  0.00     0.098 C 
BRANCH   8   9
HETATM    9  N   UNL     1       5.881  -0.479  20.407  1.00  0.00    -0.296 N 
ATOM     10  HN  UNL     1       5.146   0.079  20.842  1.00  0.00     0.177 HD
BRANCH   9  11
HETATM   11  S   UNL     1       6.288  -0.094  18.918  1.00  0.00     0.226 S 
HETATM   12  C   UNL     1       5.454   1.362  18.581  1.00  0.00     0.186 C 
HETATM   13  O   UNL     1       7.703   0.192  18.832  1.00  0.00    -0.206 OA
HETATM   14  O   UNL     1       5.896  -1.069  17.944  1.00  0.00    -0.206 OA
ENDBRANCH   9  11
ENDBRANCH   8   9
ENDBRANCH   1   7
BRANCH   1  15
HETATM   15  C   UNL     1       7.763  -2.896  23.168  1.00  0.00    -0.061 C 
BRANCH  15  16
HETATM   16  C   UNL     1       8.945  -2.581  23.664  1.00  0.00     0.290 C 
HETATM   17  O   UNL     1       9.165  -3.085  24.658  1.00  0.00    -0.259 OA
HETATM   18  N   UNL     1       9.624  -1.740  22.902  1.00  0.00    -0.315 N 
ATOM     19  HN  UNL     1       9.225  -1.384  22.033  1.00  0.00     0.170 HD
BRANCH  18  20
HETATM   20  C   UNL     1      10.798  -1.381  23.283  1.00  0.00     0.057 A 
HETATM   21  C   UNL     1      12.026  -1.718  23.088  1.00  0.00     0.117 A 
HETATM   22  N   UNL     1      13.258  -1.597  23.237  1.00  0.00    -0.373 N 
HETATM   23  C   UNL     1      13.181  -0.511  24.125  1.00  0.00     0.088 A 
ATOM     24  HN  UNL     1      14.048  -2.110  22.848  1.00  0.00     0.164 HD
HETATM   25  C   UNL     1      12.197   0.021  24.533  1.00  0.00     0.026 A 
HETATM   26  C   UNL     1      10.909  -0.130  24.301  1.00  0.00    -0.033 A 
HETATM   27  C   UNL     1       9.706   0.613  24.789  1.00  0.00     0.050 C 
ENDBRANCH  18  20
ENDBRANCH  15  16
ENDBRANCH   1  15
TORSDOF 6
ENDMDL
MODEL 3
REMARK VINA RESULT:    -6.783      2.510      5.898
REMARK INTER + INTRA:         -10.305
REMARK INTER:                  -9.342
REMARK INTRA:                  -0.963
REMARK UNBOUND:                -1.143
REMARK  6 active torsions:
REMARK  status: ('A' for Active; 'I' for Inactive)
REMARK    1  A    between atoms: S_2  and  N_5 
REMARK    2  A    between atoms: N_5  and  C_7 
REMARK    3  A    between atoms: C_8  and  C_9 
REMARK    4  A    between atoms: C_9  and  C_15 
REMARK    5  A    between atoms: C_15  and  C_16 
REMARK       I    between atoms: C_16  and  N_18 
REMARK    6  A    between atoms: N_18  and  C_20 
ROOT
HETATM    1  C   UNL     1       7.732   0.289  20.813  1.00  0.00     0.075 C 
HETATM    2  C   UNL     1       6.487   1.350  21.084  1.00  0.00    -0.000 C 
HETATM    3  C   UNL     1       5.705   1.571  20.404  1.00  0.00    -0.025 C 
HETATM    4  C   UNL     1       5.471   1.160  19.017  1.00  0.00     0.054 C 
HETATM    5  C   UNL     1       6.608   0.337  18.578  1.00  0.00    -0.025 C 
HETATM    6  C   UNL     1       7.456   0.022  19.111  1.00  0.00    -0.000 C 
ENDROOT
BRANCH   1   7
HETATM    7  C   UNL     1       8.934   0.290  21.170  1.00  0.00     0.021 C 
HETATM    8  C   UNL     1       9.825   0.730  21.934  1.00  0.00     0.098 C 
BRANCH   8   9
HETATM    9  N   UNL     1      10.840   0.603  22.651  1.00  0.00    -0.296 N 
ATOM     10  HN  UNL     1      11.428   1.429  22.765  1.00  0.00     0.177 HD
BRANCH   9  11
HETATM   11  S   UNL     1      11.308  -0.718  23.404  1.00  0.00     0.226 S 
HETATM   12  C   UNL     1      12.734  -0.282  24.244  1.00  0.00     0.186 C 
HETATM   13  O   UNL     1      10.332  -1.115  24.395  1.00  0.00    -0.206 OA
HETATM   14  O   UNL     1      11.623  -1.802  22.522  1.00  0.00    -0.206 OA
ENDBRANCH   9  11
ENDBRANCH   8   9
ENDBRANCH   1   7
BRANCH   1  15
HETATM   15  C   UNL     1       7.497  -0.824  21.323  1.00  0.00    -0.061 C 
BRANCH  15  16
HETATM   16  C   UNL     1       7.286  -2.006  21.871  1.00  0.00     0.290 C 
HETATM   17  O   UNL     1       8.237  -2.505  22.245  1.00  0.00    -0.259 OA
HETATM   18  N   UNL     1       6.014  -2.365  21.867  1.00  0.00    -0.315 N 
ATOM     19  HN  UNL     1       5.303  -1.761  21.455  1.00  0.00     0.170 HD
BRANCH  18  20
HETATM   20  C   UNL     1       5.695  -3.493  22.396  1.00  0.00     0.057 A 
HETATM   21  C   UNL     1       5.618  -4.735  22.061  1.00  0.00     0.117 A 
HETATM   22  N   UNL     1       5.409  -5.943  22.281  1.00  0.00    -0.373 N 
HETATM   23  C   UNL     1       5.040  -5.774  23.626  1.00  0.00     0.088 A 
ATOM     24  HN  UNL     1       5.482  -6.770  21.689  1.00  0.00     0.164 HD
HETATM   25  C   UNL     1       4.976  -4.753  24.235  1.00  0.00     0.026 A 
HETATM   26  C   UNL     1       5.254  -3.497  23.951  1.00  0.00    -0.033 A 
HETATM   27  C   UNL     1       5.222  -2.249  24.776  1.00  0.00     0.050 C 
ENDBRANCH  18  20
ENDBRANCH  15  16
ENDBRANCH   1  15
TORSDOF 6
ENDMDL
MODEL 4
REMARK VINA RESULT:    -6.670      2.301      2.439
REMARK INTER + INTRA:         -10.152
REMARK INTER:                  -9.467
REMARK INTRA:                  -0.685
REMARK UNBOUND:                -1.143
REMARK  6 active torsions:
REMARK  status: ('A' for Active; 'I' for Inactive)
REMARK    1  A    between atoms: S_2  and  N_5 
REMARK    2  A    between atoms: N_5  and  C_7 
REMARK    3  A    between atoms: C_8  and  C_9 
REMARK    4  A    between atoms: C_9  and  C_15 
REMARK    5  A    between atoms: C_15  and  C_16 
REMARK       I    between atoms: C_16  and  N_18 
REMARK    6  A    between atoms: N_18  and  C_20 
ROOT
HETATM    1  C   UNL     1       9.649  -1.047  24.401  1.00  0.00     0.075 C 
HETATM    2  C   UNL     1      10.009   0.430  25.065  1.00  0.00    -0.000 C 
HETATM    3  C   UNL     1      10.880   1.000  24.868  1.00  0.00    -0.025 C 
HETATM    4  C   UNL     1      12.083   0.707  24.086  1.00  0.00     0.054 C 
HETATM    5  C   UNL     1      11.978  -0.666  23.568  1.00  0.00    -0.025 C 
HETATM    6  C   UNL     1      11.199  -1.363  23.664  1.00  0.00    -0.000 C 
ENDROOT
BRANCH   1   7
HETATM    7  C   UNL     1       9.053  -2.053  24.854  1.00  0.00     0.021 C 
HETATM    8  C   UNL     1       8.544  -2.646  25.834  1.00  0.00     0.098 C 
BRANCH   8   9
HETATM    9  N   UNL     1       7.664  -3.347  26.377  1.00  0.00    -0.296 N 
ATOM     10  HN  UNL     1       6.865  -2.854  26.775  1.00  0.00     0.177 HD
BRANCH   9  11
HETATM   11  S   UNL     1       7.668  -4.933  26.512  1.00  0.00     0.226 S 
HETATM   12  C   UNL     1       6.272  -5.462  25.673  1.00  0.00     0.186 C 
HETATM   13  O   UNL     1       8.814  -5.500  25.837  1.00  0.00    -0.206 OA
HETATM   14  O   UNL     1       7.579  -5.396  27.864  1.00  0.00    -0.206 OA
ENDBRANCH   9  11
ENDBRANCH   8   9
ENDBRANCH   1   7
BRANCH   1  15
HETATM   15  C   UNL     1       8.883  -0.930  23.425  1.00  0.00    -0.061 C 
BRANCH  15  16
HETATM   16  C   UNL     1       8.052  -0.839  22.404  1.00  0.00     0.290 C 
HETATM   17  O   UNL     1       7.280  -1.673  22.375  1.00  0.00    -0.259 OA
HETATM   18  N   UNL     1       8.294   0.201  21.624  1.00  0.00    -0.315 N 
ATOM     19  HN  UNL     1       9.069   0.835  21.825  1.00  0.00     0.170 HD
BRANCH  18  20
HETATM   20  C   UNL     1       7.531   0.396  20.608  1.00  0.00     0.057 A 
HETATM   21  C   UNL     1       7.427   0.008  19.384  1.00  0.00     0.117 A 
HETATM   22  N   UNL     1       6.878  -0.037  18.267  1.00  0.00    -0.373 N 
HETATM   23  C   UNL     1       5.845   0.859  18.587  1.00  0.00     0.088 A 
ATOM     24  HN  UNL     1       7.101  -0.549  17.414  1.00  0.00     0.164 HD
HETATM   25  C   UNL     1       5.670   1.421  19.622  1.00  0.00     0.026 A 
HETATM   26  C   UNL     1       6.271   1.392  20.794  1.00  0.00    -0.033 A 
HETATM   27  C   UNL     1       5.972   2.069  22.094  1.00  0.00     0.050 C 
ENDBRANCH  18  20
ENDBRANCH  15  16
ENDBRANCH   1  15
TORSDOF 6
ENDMDL
MODEL 5
REMARK VINA RESULT:    -6.504      3.924      6.212
REMARK INTER + INTRA:          -9.929
REMARK INTER:                  -9.237
REMARK INTRA:                  -0.692
REMARK UNBOUND:                -1.143
REMARK  6 active torsions:
REMARK  status: ('A' for Active; 'I' for Inactive)
REMARK    1  A    between atoms: S_2  and  N_5 
REMARK    2  A    between atoms: N_5  and  C_7 
REMARK    3  A    between atoms: C_8  and  C_9 
REMARK    4  A    between atoms: C_9  and  C_15 
REMARK    5  A    between atoms: C_15  and  C_16 
REMARK       I    between atoms: C_16  and  N_18 
REMARK    6  A    between atoms: N_18  and  C_20 
ROOT
HETATM    1  C   UNL     1       7.047  -4.451  24.435  1.00  0.00     0.075 C 
HETATM    2  C   UNL     1       7.499  -5.362  23.124  1.00  0.00    -0.000 C 
HETATM    3  C   UNL     1       7.131  -5.249  22.138  1.00  0.00    -0.025 C 
HETATM    4  C   UNL     1       6.079  -4.398  21.578  1.00  0.00     0.054 C 
HETATM    5  C   UNL     1       5.459  -3.643  22.678  1.00  0.00    -0.025 C 
HETATM    6  C   UNL     1       5.693  -3.630  23.702  1.00  0.00    -0.000 C 
ENDROOT
BRANCH   1   7
HETATM    7  C   UNL     1       6.914  -4.730  25.650  1.00  0.00     0.021 C 
HETATM    8  C   UNL     1       7.020  -5.568  26.576  1.00  0.00     0.098 C 
BRANCH   8   9
HETATM    9  N   UNL     1       7.305  -5.909  27.743  1.00  0.00    -0.296 N 
ATOM     10  HN  UNL     1       8.295  -5.932  27.985  1.00  0.00     0.177 HD
BRANCH   9  11
HETATM   11  S   UNL     1       6.277  -6.311  28.889  1.00  0.00     0.226 S 
HETATM   12  C   UNL     1       4.883  -5.359  28.604  1.00  0.00     0.186 C 
HETATM   13  O   UNL     1       5.883  -7.697  28.760  1.00  0.00    -0.206 OA
HETATM   14  O   UNL     1       6.749  -6.027  30.212  1.00  0.00    -0.206 OA
ENDBRANCH   9  11
ENDBRANCH   8   9
ENDBRANCH   1   7
BRANCH   1  15
HETATM   15  C   UNL     1       7.861  -3.532  24.650  1.00  0.00    -0.061 C 
BRANCH  15  16
HETATM   16  C   UNL     1       8.694  -2.539  24.896  1.00  0.00     0.290 C 
HETATM   17  O   UNL     1       8.779  -2.285  26.000  1.00  0.00    -0.259 OA
HETATM   18  N   UNL     1       9.253  -2.043  23.805  1.00  0.00    -0.315 N 
ATOM     19  HN  UNL     1       9.020  -2.415  22.884  1.00  0.00     0.170 HD
BRANCH  18  20
HETATM   20  C   UNL     1      10.098  -1.083  23.933  1.00  0.00     0.057 A 
HETATM   21  C   UNL     1      11.363  -0.921  24.117  1.00  0.00     0.117 A 
HETATM   22  N   UNL     1      12.398  -0.239  24.241  1.00  0.00    -0.373 N 
HETATM   23  C   UNL     1      11.753   1.005  24.146  1.00  0.00     0.088 A 
ATOM     24  HN  UNL     1      13.377  -0.495  24.368  1.00  0.00     0.164 HD
HETATM   25  C   UNL     1      10.588   1.207  24.004  1.00  0.00     0.026 A 
HETATM   26  C   UNL     1       9.537   0.431  23.835  1.00  0.00    -0.033 A 
HETATM   27  C   UNL     1       8.093   0.733  23.592  1.00  0.00     0.050 C 
ENDBRANCH  18  20
ENDBRANCH  15  16
ENDBRANCH   1  15
TORSDOF 6
ENDMDL
MODEL 6
REMARK VINA RESULT:    -6.351     14.751     15.992
REMARK INTER + INTRA:          -9.722
REMARK INTER:                  -8.824
REMARK INTRA:                  -0.898
REMARK UNBOUND:                -1.143
REMARK  6 active torsions:
REMARK  status: ('A' for Active; 'I' for Inactive)
REMARK    1  A    between atoms: S_2  and  N_5 
REMARK    2  A    between atoms: N_5  and  C_7 
REMARK    3  A    between atoms: C_8  and  C_9 
REMARK    4  A    between atoms: C_9  and  C_15 
REMARK    5  A    between atoms: C_15  and  C_16 
REMARK       I    between atoms: C_16  and  N_18 
REMARK    6  A    between atoms: N_18  and  C_20 
ROOT
HETATM    1  C   UNL     1      23.165  -1.527  23.736  1.00  0.00     0.075 C 
HETATM    2  C   UNL     1      21.858  -0.978  24.596  1.00  0.00    -0.000 C 
HETATM    3  C   UNL     1      21.712   0.017  24.930  1.00  0.00    -0.025 C 
HETATM    4  C   UNL     1      22.575   1.200  24.882  1.00  0.00     0.054 C 
HETATM    5  C   UNL     1      23.863   0.811  24.288  1.00  0.00    -0.025 C 
HETATM    6  C   UNL     1      24.176  -0.116  23.906  1.00  0.00    -0.000 C 
ENDROOT
BRANCH   1   7
HETATM    7  C   UNL     1      23.770  -2.626  23.731  1.00  0.00     0.021 C 
HETATM    8  C   UNL     1      23.872  -3.795  24.170  1.00  0.00     0.098 C 
BRANCH   8   9
HETATM    9  N   UNL     1      24.090  -5.019  24.041  1.00  0.00    -0.296 N 
ATOM     10  HN  UNL     1      24.271  -5.355  23.095  1.00  0.00     0.177 HD
BRANCH   9  11
HETATM   11  S   UNL     1      24.114  -6.103  25.205  1.00  0.00     0.226 S 
HETATM   12  C   UNL     1      25.746  -6.188  25.714  1.00  0.00     0.186 C 
HETATM   13  O   UNL     1      23.334  -5.655  26.337  1.00  0.00    -0.206 OA
HETATM   14  O   UNL     1      23.709  -7.411  24.781  1.00  0.00    -0.206 OA
ENDBRANCH   9  11
ENDBRANCH   8   9
ENDBRANCH   1   7
BRANCH   1  15
HETATM   15  C   UNL     1      22.921  -1.563  22.514  1.00  0.00    -0.061 C 
BRANCH  15  16
HETATM   16  C   UNL     1      22.701  -1.598  21.213  1.00  0.00     0.290 C 
HETATM   17  O   UNL     1      21.628  -1.860  20.944  1.00  0.00    -0.259 OA
HETATM   18  N   UNL     1      23.776  -1.326  20.494  1.00  0.00    -0.315 N 
ATOM     19  HN  UNL     1      24.670  -1.130  20.945  1.00  0.00     0.170 HD
BRANCH  18  20
HETATM   20  C   UNL     1      23.669  -1.315  19.213  1.00  0.00     0.057 A 
HETATM   21  C   UNL     1      23.338  -0.496  18.274  1.00  0.00     0.117 A 
HETATM   22  N   UNL     1      23.169  -0.166  17.085  1.00  0.00    -0.373 N 
HETATM   23  C   UNL     1      23.523  -1.414  16.546  1.00  0.00     0.088 A 
ATOM     24  HN  UNL     1      22.875   0.709  16.652  1.00  0.00     0.164 HD
HETATM   25  C   UNL     1      23.848  -2.393  17.141  1.00  0.00     0.026 A 
HETATM   26  C   UNL     1      24.051  -2.667  18.413  1.00  0.00    -0.033 A 
HETATM   27  C   UNL     1      24.528  -3.901  19.112  1.00  0.00     0.050 C 
ENDBRANCH  18  20
ENDBRANCH  15  16
ENDBRANCH   1  15
TORSDOF 6
ENDMDL
MODEL 7
REMARK VINA RESULT:    -6.289      1.760      5.498
REMARK INTER + INTRA:          -9.637
REMARK INTER:                  -8.564
REMARK INTRA:                  -1.073
REMARK UNBOUND:                -1.143
REMARK  6 active torsions:
REMARK  status: ('A' for Active; 'I' for Inactive)
REMARK    1  A    between atoms: S_2  and  N_5 
REMARK    2  A    between atoms: N_5  and  C_7 
REMARK    3  A    between atoms: C_8  and  C_9 
REMARK    4  A    between atoms: C_9  and  C_15 
REMARK    5  A    between atoms: C_15  and  C_16 
REMARK       I    between atoms: C_16  and  N_18 
REMARK    6  A    between atoms: N_18  and  C_20 
ROOT
HETATM    1  C   UNL     1       6.324  -0.601  20.319  1.00  0.00     0.075 C 
HETATM    2  C   UNL     1       6.403  -0.539  18.663  1.00  0.00    -0.000 C 
HETATM    3  C   UNL     1       6.165   0.302  18.065  1.00  0.00    -0.025 C 
HETATM    4  C   UNL     1       5.605   1.614  18.401  1.00  0.00     0.054 C 
HETATM    5  C   UNL     1       5.317   1.640  19.843  1.00  0.00    -0.025 C 
HETATM    6  C   UNL     1       5.487   0.908  20.577  1.00  0.00    -0.000 C 
ENDROOT
BRANCH   1   7
HETATM    7  C   UNL     1       6.028  -1.523  21.115  1.00  0.00     0.021 C 
HETATM    8  C   UNL     1       5.699  -2.719  21.296  1.00  0.00     0.098 C 
BRANCH   8   9
HETATM    9  N   UNL     1       5.748  -3.808  21.906  1.00  0.00    -0.296 N 
ATOM     10  HN  UNL     1       4.902  -4.377  21.897  1.00  0.00     0.177 HD
BRANCH   9  11
HETATM   11  S   UNL     1       6.999  -4.395  22.696  1.00  0.00     0.226 S 
HETATM   12  C   UNL     1       6.519  -4.441  24.338  1.00  0.00     0.186 C 
HETATM   13  O   UNL     1       7.267  -5.757  22.289  1.00  0.00    -0.206 OA
HETATM   14  O   UNL     1       8.175  -3.583  22.596  1.00  0.00    -0.206 OA
ENDBRANCH   9  11
ENDBRANCH   8   9
ENDBRANCH   1   7
BRANCH   1  15
HETATM   15  C   UNL     1       7.442  -0.404  20.833  1.00  0.00    -0.061 C 
BRANCH  15  16
HETATM   16  C   UNL     1       8.628  -0.159  21.359  1.00  0.00     0.290 C 
HETATM   17  O   UNL     1       9.228   0.611  20.778  1.00  0.00    -0.259 OA
HETATM   18  N   UNL     1       8.871  -0.866  22.450  1.00  0.00    -0.315 N 
ATOM     19  HN  UNL     1       8.185  -1.533  22.803  1.00  0.00     0.170 HD
BRANCH  18  20
HETATM   20  C   UNL     1       9.991  -0.690  23.055  1.00  0.00     0.057 A 
HETATM   21  C   UNL     1      11.189  -1.165  23.036  1.00  0.00     0.117 A 
HETATM   22  N   UNL     1      12.380  -1.214  23.399  1.00  0.00    -0.373 N 
HETATM   23  C   UNL     1      12.269  -0.200  24.365  1.00  0.00     0.088 A 
ATOM     24  HN  UNL     1      13.164  -1.792  23.099  1.00  0.00     0.164 HD
HETATM   25  C   UNL     1      11.294   0.420  24.654  1.00  0.00     0.026 A 
HETATM   26  C   UNL     1      10.060   0.453  24.196  1.00  0.00    -0.033 A 
HETATM   27  C   UNL     1       8.880   1.303  24.548  1.00  0.00     0.050 C 
ENDBRANCH  18  20
ENDBRANCH  15  16
ENDBRANCH   1  15
TORSDOF 6
ENDMDL
MODEL 8
REMARK VINA RESULT:    -6.146      3.344      6.271
REMARK INTER + INTRA:          -9.445
REMARK INTER:                  -8.706
REMARK INTRA:                  -0.739
REMARK UNBOUND:                -1.143
REMARK  6 active torsions:
REMARK  status: ('A' for Active; 'I' for Inactive)
REMARK    1  A    between atoms: S_2  and  N_5 
REMARK    2  A    between atoms: N_5  and  C_7 
REMARK    3  A    between atoms: C_8  and  C_9 
REMARK    4  A    between atoms: C_9  and  C_15 
REMARK    5  A    between atoms: C_15  and  C_16 
REMARK       I    between atoms: C_16  and  N_18 
REMARK    6  A    between atoms: N_18  and  C_20 
ROOT
HETATM    1  C   UNL     1       7.877   3.348  23.195  1.00  0.00     0.075 C 
HETATM    2  C   UNL     1       8.229   4.953  22.964  1.00  0.00    -0.000 C 
HETATM    3  C   UNL     1       8.489   5.643  23.724  1.00  0.00    -0.025 C 
HETATM    4  C   UNL     1       8.533   5.520  25.183  1.00  0.00     0.054 C 
HETATM    5  C   UNL     1       8.069   4.174  25.550  1.00  0.00    -0.025 C 
HETATM    6  C   UNL     1       7.777   3.372  24.937  1.00  0.00    -0.000 C 
ENDROOT
BRANCH   1   7
HETATM    7  C   UNL     1       7.080   2.568  22.621  1.00  0.00     0.021 C 
HETATM    8  C   UNL     1       6.859   1.750  21.698  1.00  0.00     0.098 C 
BRANCH   8   9
HETATM    9  N   UNL     1       6.370   0.698  21.235  1.00  0.00    -0.296 N 
ATOM     10  HN  UNL     1       6.077  -0.008  21.910  1.00  0.00     0.177 HD
BRANCH   9  11
HETATM   11  S   UNL     1       6.159   0.350  19.697  1.00  0.00     0.226 S 
HETATM   12  C   UNL     1       5.000   1.476  19.131  1.00  0.00     0.186 C 
HETATM   13  O   UNL     1       7.376   0.575  18.949  1.00  0.00    -0.206 OA
HETATM   14  O   UNL     1       5.647  -0.969  19.470  1.00  0.00    -0.206 OA
ENDBRANCH   9  11
ENDBRANCH   8   9
ENDBRANCH   1   7
BRANCH   1  15
HETATM   15  C   UNL     1       8.870   2.630  22.972  1.00  0.00    -0.061 C 
BRANCH  15  16
HETATM   16  C   UNL     1       9.936   1.877  22.772  1.00  0.00     0.290 C 
HETATM   17  O   UNL     1      10.484   2.119  21.806  1.00  0.00    -0.259 OA
HETATM   18  N   UNL     1      10.141   0.996  23.736  1.00  0.00    -0.315 N 
ATOM     19  HN  UNL     1       9.502   0.931  24.528  1.00  0.00     0.170 HD
BRANCH  18  20
HETATM   20  C   UNL     1      11.165   0.223  23.651  1.00  0.00     0.057 A 
HETATM   21  C   UNL     1      12.383   0.176  24.069  1.00  0.00     0.117 A 
HETATM   22  N   UNL     1      13.503  -0.354  24.198  1.00  0.00    -0.373 N 
HETATM   23  C   UNL     1      13.206  -1.488  23.424  1.00  0.00     0.088 A 
ATOM     24  HN  UNL     1      14.345  -0.065  24.695  1.00  0.00     0.164 HD
HETATM   25  C   UNL     1      12.182  -1.737  22.869  1.00  0.00     0.026 A 
HETATM   26  C   UNL     1      11.006  -1.147  22.807  1.00  0.00    -0.033 A 
HETATM   27  C   UNL     1       9.721  -1.535  22.148  1.00  0.00     0.050 C 
ENDBRANCH  18  20
ENDBRANCH  15  16
ENDBRANCH   1  15
TORSDOF 6
ENDMDL
MODEL 9
REMARK VINA RESULT:    -6.137     23.057     26.499
REMARK INTER + INTRA:          -9.433
REMARK INTER:                  -8.451
REMARK INTRA:                  -0.982
REMARK UNBOUND:                -1.143
REMARK  6 active torsions:
REMARK  status: ('A' for Active; 'I' for Inactive)
REMARK    1  A    between atoms: S_2  and  N_5 
REMARK    2  A    between atoms: N_5  and  C_7 
REMARK    3  A    between atoms: C_8  and  C_9 
REMARK    4  A    between atoms: C_9  and  C_15 
REMARK    5  A    between atoms: C_15  and  C_16 
REMARK       I    between atoms: C_16  and  N_18 
REMARK    6  A    between atoms: N_18  and  C_20 
ROOT
HETATM    1  C   UNL     1       8.317  17.205   1.743  1.00  0.00     0.075 C 
HETATM    2  C   UNL     1       9.038  17.890   0.416  1.00  0.00    -0.000 C 
HETATM    3  C   UNL     1       8.888  18.882   0.075  1.00  0.00    -0.025 C 
HETATM    4  C   UNL     1       7.978  19.941   0.518  1.00  0.00     0.054 C 
HETATM    5  C   UNL     1       7.137  19.408   1.601  1.00  0.00    -0.025 C 
HETATM    6  C   UNL     1       7.149  18.462   2.059  1.00  0.00    -0.000 C 
ENDROOT
BRANCH   1   7
HETATM    7  C   UNL     1       7.928  16.037   1.983  1.00  0.00     0.021 C 
HETATM    8  C   UNL     1       8.013  14.809   1.746  1.00  0.00     0.098 C 
BRANCH   8   9
HETATM    9  N   UNL     1       8.037  13.608   2.087  1.00  0.00    -0.296 N 
ATOM     10  HN  UNL     1       7.907  12.918   1.347  1.00  0.00     0.177 HD
BRANCH   9  11
HETATM   11  S   UNL     1       8.249  13.046   3.561  1.00  0.00     0.226 S 
HETATM   12  C   UNL     1       7.714  11.422   3.510  1.00  0.00     0.186 C 
HETATM   13  O   UNL     1       9.655  13.024   3.901  1.00  0.00    -0.206 OA
HETATM   14  O   UNL     1       7.485  13.738   4.556  1.00  0.00    -0.206 OA
ENDBRANCH   9  11
ENDBRANCH   8   9
ENDBRANCH   1   7
BRANCH   1  15
HETATM   15  C   UNL     1       9.066  17.249   2.738  1.00  0.00    -0.061 C 
BRANCH  15  16
HETATM   16  C   UNL     1       9.891  17.291   3.768  1.00  0.00     0.290 C 
HETATM   17  O   UNL     1      10.547  16.367   3.857  1.00  0.00    -0.259 OA
HETATM   18  N   UNL     1       9.778  18.397   4.483  1.00  0.00    -0.315 N 
ATOM     19  HN  UNL     1       9.095  19.113   4.233  1.00  0.00     0.170 HD
BRANCH  18  20
HETATM   20  C   UNL     1      10.551  18.550   5.499  1.00  0.00     0.057 A 
HETATM   21  C   UNL     1      10.555  18.293   6.762  1.00  0.00     0.117 A 
HETATM   22  N   UNL     1      11.067  18.267   7.897  1.00  0.00    -0.373 N 
HETATM   23  C   UNL     1      12.266  18.895   7.520  1.00  0.00     0.088 A 
ATOM     24  HN  UNL     1      10.732  17.912   8.792  1.00  0.00     0.164 HD
HETATM   25  C   UNL     1      12.566  19.288   6.437  1.00  0.00     0.026 A 
HETATM   26  C   UNL     1      11.989  19.246   5.253  1.00  0.00    -0.033 A 
HETATM   27  C   UNL     1      12.439  19.694   3.899  1.00  0.00     0.050 C 
ENDBRANCH  18  20
ENDBRANCH  15  16
ENDBRANCH   1  15
TORSDOF 6
ENDMDL
