stable:False satoms:6 tatoms:24 sratio:0.25
  -OEChem-08062415173D

 43 45  0     1  0  0  0  0  0999 V2000
    6.7575   -5.3854   26.0231 C   0  0  0  0  0  0  0  0  0  0  0  0
    8.1415   -4.7708   25.9210 S   0  0  0  0  0  0  0  0  0  0  0  0
    9.1339   -5.8081   25.7708 O   0  0  0  0  0  0  0  0  0  0  0  0
    8.4339   -3.9497   27.0494 O   0  0  0  0  0  0  0  0  0  0  0  0
    8.1187   -3.8389   24.5639 N   0  0  0  0  0  0  0  0  0  0  0  0
    8.9552   -3.1425   24.1218 C   0  0  0  0  0  0  0  0  0  0  0  0
    9.4464   -2.1424   23.5748 C   0  0  0  0  0  0  0  0  0  0  0  0
   10.3445   -1.2112   23.4579 C   0  0  1  0  0  0  0  0  0  0  0  0
   10.9062   -0.2064   24.6052 C   0  0  0  0  0  0  0  0  0  0  0  0
   11.9452    0.1340   24.6642 C   0  0  0  0  0  0  0  0  0  0  0  0
   13.0580   -0.2319   23.9510 C   0  0  0  0  0  0  0  0  0  0  0  0
   12.7524   -1.2503   23.0419 C   0  0  0  0  0  0  0  0  0  0  0  0
   11.9103   -1.7636   22.7796 C   0  0  0  0  0  0  0  0  0  0  0  0
    9.7642   -0.7148   22.5405 C   0  0  2  0  0  0  0  0  0  0  0  0
    9.1394   -0.0227   21.5790 C   0  0  0  0  0  0  0  0  0  0  0  0
    9.6202    0.9697   21.2461 O   0  0  0  0  0  0  0  0  0  0  0  0
    8.0403   -0.6667   21.2347 N   0  0  0  0  0  0  0  0  0  0  0  0
    7.3876   -0.1442   20.2943 C   0  0  0  0  0  0  0  0  0  0  0  0
    7.4871    0.0802   19.0699 C   0  0  0  0  0  0  0  0  0  0  0  0
    7.0492    0.5307   17.9132 N   0  0  0  0  0  0  0  0  0  0  0  0
    5.9546    0.9452   18.3713 C   0  0  0  0  0  0  0  0  0  0  0  0
    5.4669    0.9517   19.4947 C   0  0  0  0  0  0  0  0  0  0  0  0
    5.8767    0.4542   20.6806 C   0  0  0  0  0  0  0  0  0  0  0  0
    5.3603    0.4166   21.7986 C   0  0  0  0  0  0  0  0  0  0  0  0
    6.7048   -6.0253   26.9163 H   0  0  0  0  0  0  0  0  0  0  0  0
    6.0061   -4.5858   26.1003 H   0  0  0  0  0  0  0  0  0  0  0  0
    6.5581   -5.9906   25.1264 H   0  0  0  0  0  0  0  0  0  0  0  0
    7.3360   -3.2306   24.6959 H   0  0  0  0  0  0  0  0  0  0  0  0
    9.8387   -3.7372   24.3018 H   0  0  0  0  0  0  0  0  0  0  0  0
   10.2130    0.1468   25.3543 H   0  0  0  0  0  0  0  0  0  0  0  0
   12.1251    0.8895   25.4147 H   0  0  0  0  0  0  0  0  0  0  0  0
   14.0372    0.2065   24.0745 H   0  0  0  0  0  0  0  0  0  0  0  0
   13.6181   -1.5714   22.4816 H   0  0  0  0  0  0  0  0  0  0  0  0
   11.8269   -1.7176   21.6837 H   0  0  0  0  0  0  0  0  0  0  0  0
   12.0526   -2.8083   23.0930 H   0  0  0  0  0  0  0  0  0  0  0  0
   10.3050   -1.3288   21.8052 H   0  0  0  0  0  0  0  0  0  0  0  0
    7.7475   -1.5086   21.6881 H   0  0  0  0  0  0  0  0  0  0  0  0
    8.4665   -0.3056   18.8282 H   0  0  0  0  0  0  0  0  0  0  0  0
    5.3137    1.3853   17.6217 H   0  0  0  0  0  0  0  0  0  0  0  0
    4.5149    1.4590   19.5472 H   0  0  0  0  0  0  0  0  0  0  0  0
    4.7783   -0.5110   21.9032 H   0  0  0  0  0  0  0  0  0  0  0  0
    6.1470    0.4444   22.5668 H   0  0  0  0  0  0  0  0  0  0  0  0
    4.6944    1.2831   21.9241 H   0  0  0  0  0  0  0  0  0  0  0  0
 20 21  2  0  0  0  0
 19 20  1  0  0  0  0
 21 22  1  0  0  0  0
 18 19  2  0  0  0  0
 22 23  2  0  0  0  0
 18 23  1  0  0  0  0
 17 18  1  0  0  0  0
 23 24  1  0  0  0  0
 15 16  2  0  0  0  0
 15 17  1  0  0  0  0
 14 15  1  0  0  0  0
  8 14  1  0  0  0  0
  7 14  1  0  0  0  0
 12 13  1  0  0  0  0
  8 13  1  0  0  0  0
 11 12  2  0  0  0  0
  7  8  1  0  0  0  0
  8  9  1  0  0  0  0
  6  7  2  3  0  0  0
 10 11  1  0  0  0  0
  5  6  1  0  0  0  0
  9 10  2  0  0  0  0
  2  5  1  0  0  0  0
  2  3  2  0  0  0  0
  1  2  1  0  0  0  0
  2  4  2  0  0  0  0
  1 25  1  0  0  0  0
  1 26  1  0  0  0  0
  1 27  1  0  0  0  0
  5 28  1  0  0  0  0
  6 29  1  0  0  0  0
  9 30  1  0  0  0  0
 10 31  1  0  0  0  0
 11 32  1  0  0  0  0
 12 33  1  0  0  0  0
 13 34  1  0  0  0  0
 13 35  1  0  0  0  0
 14 36  1  0  0  0  0
 17 37  1  0  0  0  0
 19 38  1  0  0  0  0
 21 39  1  0  0  0  0
 22 40  1  0  0  0  0
 24 41  1  0  0  0  0
 24 42  1  0  0  0  0
 24 43  1  0  0  0  0
M  END
> <Chemgauss4>
-13.007961

$$$$
