stable:False satoms:19 tatoms:24 sratio:0.7916666666666666
  -OEChem-08052416553D

 25 24  0     1  0  0  0  0  0999 V2000
    8.6594    2.2795   24.4360 O   0  0  0  0  0  0  0  0  0  0  0  0
    7.2254    1.5962   22.5627 H   0  0  0  0  0  0  0  0  0  0  0  0
    7.2334    0.9656   20.5352 C   0  0  0  0  0  0  0  0  0  0  0  0
    8.6201   -0.3161   22.5543 S   0  0  0  0  0  0  0  0  0  0  0  0
    8.9036    0.5866   25.9239 N   0  0  0  0  0  0  0  0  0  0  0  0
    9.7986    1.8737   21.5152 H   0  0  0  0  0  0  0  0  0  0  0  0
    7.9021    1.2335   21.7853 C   0  0  1  0  0  0  0  0  0  0  0  0
   13.6966   -1.8900   23.2275 O   0  0  0  0  0  0  0  0  0  0  0  0
   13.1401   -1.0355   23.8287 N   0  0  0  0  0  0  0  0  0  0  0  0
    7.5665   -0.9358   23.2814 O   0  0  0  0  0  0  0  0  0  0  0  0
   13.6388   -0.2930   24.6030 O   0  0  0  0  0  0  0  0  0  0  0  0
    9.6596    0.3525   23.7799 N   0  0  0  0  0  0  0  0  0  0  0  0
   11.1747   -1.8094   22.9574 C   0  0  0  0  0  2  0  0  0  0  0  0
    9.0124    1.1701   24.7174 C   0  0  0  0  0  0  0  0  0  0  0  0
    8.8957    2.1279   21.5186 O   0  0  0  0  0  0  0  0  0  0  0  0
    6.8308    1.9038   20.1257 H   0  0  0  0  0  0  0  0  0  0  0  0
   10.8929   -2.5433   22.3633 H   0  0  0  0  0  0  0  0  0  0  0  0
    9.6337    0.7367   26.5876 H   0  0  0  0  0  0  0  0  0  0  0  0
   11.6719   -0.9262   23.6226 C   0  0  0  0  0  0  0  0  0  0  0  0
   11.3362    0.7020   24.9565 H   0  0  0  0  0  0  0  0  0  0  0  0
   10.9279    0.0939   24.1648 C   0  0  0  0  0  0  0  0  0  0  0  0
    7.9497    0.5319   19.8219 H   0  0  0  0  0  0  0  0  0  0  0  0
    8.0732    0.0995   26.1338 H   0  0  0  0  0  0  0  0  0  0  0  0
    9.1577   -1.0060   21.4438 O   0  0  0  0  0  0  0  0  0  0  0  0
    6.4097    0.2565   20.7047 H   0  0  0  0  0  0  0  0  0  0  0  0
  5 23  1  0  0  0  0
  5 18  1  0  0  0  0
  5 14  1  0  0  0  0
  4 10  2  0  0  0  0
  2  7  1  0  0  0  0
  1 14  2  0  0  0  0
 12 14  1  0  0  0  0
  3  7  1  0  0  0  0
  4  7  1  0  0  0  0
  7 15  1  0  0  0  0
  3 16  1  0  0  0  0
  3 22  1  0  0  0  0
  4 12  1  0  0  0  0
  4 24  2  0  0  0  0
 12 21  1  0  0  0  0
  6 15  1  0  0  0  0
 20 21  1  0  0  0  0
 19 21  2  0  0  0  0
 13 19  1  0  0  0  0
 13 17  1  0  0  0  0
  9 19  1  0  0  0  0
  9 11  2  0  0  0  0
  8  9  2  0  0  0  0
  3 25  1  0  0  0  0
M  END
> <Chemgauss4>
-4.666823

$$$$
