stable:False satoms:19 tatoms:24 sratio:0.7916666666666666
  -OEChem-08052416553D

 25 24  0     1  0  0  0  0  0999 V2000
   -8.7354    2.2857  -24.4738 O   0  0  0  0  0  0  0  0  0  0  0  0
   -7.3480    1.7394  -22.5221 H   0  0  0  0  0  0  0  0  0  0  0  0
   -7.4073    1.2284  -20.4620 C   0  0  0  0  0  0  0  0  0  0  0  0
   -8.7105   -0.1942  -22.4419 S   0  0  0  0  0  0  0  0  0  0  0  0
   -8.9062    0.5045  -25.8658 N   0  0  0  0  0  0  0  0  0  0  0  0
   -9.9561    2.0306  -21.5689 H   0  0  0  0  0  0  0  0  0  0  0  0
   -8.0420    1.4105  -21.7449 C   0  0  1  0  0  0  0  0  0  0  0  0
  -13.7375   -1.8974  -23.1702 O   0  0  0  0  0  0  0  0  0  0  0  0
  -13.1772   -1.0694  -23.8041 N   0  0  0  0  0  0  0  0  0  0  0  0
   -7.6252   -0.8361  -23.0999 O   0  0  0  0  0  0  0  0  0  0  0  0
  -13.6643   -0.3828  -24.6352 O   0  0  0  0  0  0  0  0  0  0  0  0
   -9.7232    0.3824  -23.7349 N   0  0  0  0  0  0  0  0  0  0  0  0
  -11.2267   -1.7550  -22.8312 C   0  0  0  0  0  2  0  0  0  0  0  0
   -9.0613    1.1555  -24.6995 C   0  0  0  0  0  0  0  0  0  0  0  0
   -9.0579    2.3006  -21.5608 O   0  0  0  0  0  0  0  0  0  0  0  0
   -7.0329    2.1962  -20.0969 H   0  0  0  0  0  0  0  0  0  0  0  0
  -10.9510   -2.4477  -22.1869 H   0  0  0  0  0  0  0  0  0  0  0  0
   -9.6182    0.6022  -26.5583 H   0  0  0  0  0  0  0  0  0  0  0  0
  -11.7179   -0.9214  -23.5617 C   0  0  0  0  0  0  0  0  0  0  0  0
  -11.3687    0.6318  -24.9788 H   0  0  0  0  0  0  0  0  0  0  0  0
  -10.9747    0.0786  -24.1410 C   0  0  0  0  0  0  0  0  0  0  0  0
   -8.1377    0.8241  -19.7458 H   0  0  0  0  0  0  0  0  0  0  0  0
   -8.0618    0.0212  -26.0221 H   0  0  0  0  0  0  0  0  0  0  0  0
   -9.2702   -0.8278  -21.3090 O   0  0  0  0  0  0  0  0  0  0  0  0
   -6.5673    0.5258  -20.5651 H   0  0  0  0  0  0  0  0  0  0  0  0
  5 23  1  0  0  0  0
  5 18  1  0  0  0  0
  5 14  1  0  0  0  0
  4 10  2  0  0  0  0
  2  7  1  0  0  0  0
  1 14  2  0  0  0  0
 12 14  1  0  0  0  0
  3  7  1  0  0  0  0
  4  7  1  0  0  0  0
  7 15  1  0  0  0  0
  3 16  1  0  0  0  0
  3 22  1  0  0  0  0
  4 12  1  0  0  0  0
  4 24  2  0  0  0  0
 12 21  1  0  0  0  0
  6 15  1  0  0  0  0
 20 21  1  0  0  0  0
 19 21  2  0  0  0  0
 13 19  1  0  0  0  0
 13 17  1  0  0  0  0
  9 19  1  0  0  0  0
  9 11  2  0  0  0  0
  8  9  2  0  0  0  0
  3 25  1  0  0  0  0
M  END
> <Chemgauss4>
-4.590801

$$$$
