MODEL 1
REMARK VINA RESULT:    -6.443      0.000      0.000
REMARK INTER + INTRA:         -11.587
REMARK INTER:                 -10.210
REMARK INTRA:                  -1.376
REMARK UNBOUND:                -1.376
REMARK  10 active torsions:
REMARK  status: ('A' for Active; 'I' for Inactive)
REMARK    1  A    between atoms: S_2  and  N_5 
REMARK    2  A    between atoms: C_7  and  C_8 
REMARK    3  A    between atoms: C_8  and  C_9 
REMARK    4  A    between atoms: C_9  and  C_15 
REMARK    5  A    between atoms: C_9  and  C_14 
REMARK    6  A    between atoms: C_11  and  C_12 
REMARK    7  A    between atoms: C_12  and  C_13 
REMARK    8  A    between atoms: C_13  and  C_14 
REMARK    9  A    between atoms: C_15  and  C_16 
REMARK       I    between atoms: C_16  and  N_18 
REMARK   10  A    between atoms: N_18  and  C_20 
ROOT
HETATM    1  C   UNL     1       9.288  -1.454  23.470  1.00  0.00     0.108 C 
ENDROOT
BRANCH   1   2
HETATM    2  C   UNL     1       8.477  -2.357  23.571  1.00  0.00     0.011 C 
BRANCH   2   3
HETATM    3  C   UNL     1       7.916  -3.362  23.209  1.00  0.00     0.097 C 
HETATM    4  N   UNL     1       7.666  -4.297  22.469  1.00  0.00    -0.296 N 
ATOM      5  HN  UNL     1       8.455  -4.739  21.997  1.00  0.00     0.177 HD
BRANCH   4   6
HETATM    6  S   UNL     1       6.210  -4.896  22.167  1.00  0.00     0.226 S 
HETATM    7  C   UNL     1       5.693  -5.558  23.696  1.00  0.00     0.186 C 
HETATM    8  O   UNL     1       5.263  -3.848  21.808  1.00  0.00    -0.206 OA
HETATM    9  O   UNL     1       6.221  -5.949  21.187  1.00  0.00    -0.206 OA
ENDBRANCH   4   6
ENDBRANCH   2   3
ENDBRANCH   1   2
BRANCH   1  10
HETATM   10  C   UNL     1       8.856  -0.796  22.512  1.00  0.00    -0.071 C 
BRANCH  10  11
HETATM   11  C   UNL     1       8.374  -0.316  21.415  1.00  0.00     0.289 C 
HETATM   12  O   UNL     1       9.126   0.277  20.799  1.00  0.00    -0.259 OA
HETATM   13  N   UNL     1       7.084  -0.556  21.214  1.00  0.00    -0.315 N 
ATOM     14  HN  UNL     1       6.555  -1.097  21.897  1.00  0.00     0.170 HD
BRANCH  13  15
HETATM   15  C   UNL     1       6.518  -0.121  20.189  1.00  0.00     0.057 A 
HETATM   16  C   UNL     1       6.305  -0.565  18.962  1.00  0.00     0.117 A 
HETATM   17  N   UNL     1       5.829  -0.443  17.829  1.00  0.00    -0.373 N 
HETATM   18  C   UNL     1       5.328   0.767  17.974  1.00  0.00     0.088 A 
ATOM     19  HN  UNL     1       5.826  -1.079  17.032  1.00  0.00     0.164 HD
HETATM   20  C   UNL     1       5.334   1.532  18.999  1.00  0.00     0.026 A 
HETATM   21  C   UNL     1       5.867   1.320  20.183  1.00  0.00    -0.033 A 
HETATM   22  C   UNL     1       5.909   2.223  21.445  1.00  0.00     0.050 C 
ENDBRANCH  13  15
ENDBRANCH  10  11
ENDBRANCH   1  10
BRANCH   1  23
HETATM   23  C   UNL     1      10.934  -1.713  23.239  1.00  0.00    -0.010 C 
BRANCH  23  24
HETATM   24  C   UNL     1      11.693  -0.923  23.270  1.00  0.00    -0.025 C 
BRANCH  24  25
HETATM   25  C   UNL     1      12.139  -0.090  24.160  1.00  0.00     0.053 C 
BRANCH  25  26
HETATM   26  C   UNL     1      11.650   1.344  23.831  1.00  0.00    -0.033 C 
HETATM   27  C   UNL     1      11.027   1.909  24.248  1.00  0.00     0.007 C 
ENDBRANCH  25  26
ENDBRANCH  24  25
ENDBRANCH  23  24
ENDBRANCH   1  23
TORSDOF 10
ENDMDL
MODEL 2
REMARK VINA RESULT:    -6.179      3.809      6.205
REMARK INTER + INTRA:         -11.168
REMARK INTER:                  -9.704
REMARK INTRA:                  -1.464
REMARK UNBOUND:                -1.376
REMARK  10 active torsions:
REMARK  status: ('A' for Active; 'I' for Inactive)
REMARK    1  A    between atoms: S_2  and  N_5 
REMARK    2  A    between atoms: C_7  and  C_8 
REMARK    3  A    between atoms: C_8  and  C_9 
REMARK    4  A    between atoms: C_9  and  C_15 
REMARK    5  A    between atoms: C_9  and  C_14 
REMARK    6  A    between atoms: C_11  and  C_12 
REMARK    7  A    between atoms: C_12  and  C_13 
REMARK    8  A    between atoms: C_13  and  C_14 
REMARK    9  A    between atoms: C_15  and  C_16 
REMARK       I    between atoms: C_16  and  N_18 
REMARK   10  A    between atoms: N_18  and  C_20 
ROOT
HETATM    1  C   UNL     1       8.270  -4.964  24.341  1.00  0.00     0.108 C 
ENDROOT
BRANCH   1   2
HETATM    2  C   UNL     1       7.748  -4.871  25.438  1.00  0.00     0.011 C 
BRANCH   2   3
HETATM    3  C   UNL     1       7.508  -5.234  26.563  1.00  0.00     0.097 C 
HETATM    4  N   UNL     1       7.477  -6.006  27.505  1.00  0.00    -0.296 N 
ATOM      5  HN  UNL     1       8.289  -6.608  27.637  1.00  0.00     0.177 HD
BRANCH   4   6
HETATM    6  S   UNL     1       6.277  -6.162  28.556  1.00  0.00     0.226 S 
HETATM    7  C   UNL     1       4.855  -5.704  27.655  1.00  0.00     0.186 C 
HETATM    8  O   UNL     1       6.100  -7.549  28.965  1.00  0.00    -0.206 OA
HETATM    9  O   UNL     1       6.402  -5.293  29.695  1.00  0.00    -0.206 OA
ENDBRANCH   4   6
ENDBRANCH   2   3
ENDBRANCH   1   2
BRANCH   1  10
HETATM   10  C   UNL     1       8.562  -3.789  24.070  1.00  0.00    -0.071 C 
BRANCH  10  11
HETATM   11  C   UNL     1       9.080  -2.648  23.761  1.00  0.00     0.289 C 
HETATM   12  O   UNL     1       9.056  -2.415  22.647  1.00  0.00    -0.259 OA
HETATM   13  N   UNL     1       9.585  -1.964  24.780  1.00  0.00    -0.315 N 
ATOM     14  HN  UNL     1       9.534  -2.346  25.724  1.00  0.00     0.170 HD
BRANCH  13  15
HETATM   15  C   UNL     1      10.123  -0.854  24.585  1.00  0.00     0.057 A 
HETATM   16  C   UNL     1      11.341  -0.426  24.304  1.00  0.00     0.117 A 
HETATM   17  N   UNL     1      12.146   0.476  24.051  1.00  0.00    -0.373 N 
HETATM   18  C   UNL     1      11.318   1.494  24.171  1.00  0.00     0.088 A 
ATOM     19  HN  UNL     1      13.139   0.444  23.822  1.00  0.00     0.164 HD
HETATM   20  C   UNL     1      10.067   1.497  24.444  1.00  0.00     0.026 A 
HETATM   21  C   UNL     1       9.276   0.478  24.699  1.00  0.00    -0.033 A 
HETATM   22  C   UNL     1       7.764   0.438  25.045  1.00  0.00     0.050 C 
ENDBRANCH  13  15
ENDBRANCH  10  11
ENDBRANCH   1  10
BRANCH   1  23
HETATM   23  C   UNL     1       7.503  -5.643  23.007  1.00  0.00    -0.010 C 
BRANCH  23  24
HETATM   24  C   UNL     1       6.551  -5.289  22.596  1.00  0.00    -0.025 C 
BRANCH  24  25
HETATM   25  C   UNL     1       6.123  -4.893  21.437  1.00  0.00     0.053 C 
BRANCH  25  26
HETATM   26  C   UNL     1       5.675  -3.411  21.518  1.00  0.00    -0.033 C 
HETATM   27  C   UNL     1       5.624  -2.806  22.234  1.00  0.00     0.007 C 
ENDBRANCH  25  26
ENDBRANCH  24  25
ENDBRANCH  23  24
ENDBRANCH   1  23
TORSDOF 10
ENDMDL
MODEL 3
REMARK VINA RESULT:    -6.172      2.258      5.342
REMARK INTER + INTRA:         -11.156
REMARK INTER:                 -10.045
REMARK INTRA:                  -1.112
REMARK UNBOUND:                -1.376
REMARK  10 active torsions:
REMARK  status: ('A' for Active; 'I' for Inactive)
REMARK    1  A    between atoms: S_2  and  N_5 
REMARK    2  A    between atoms: C_7  and  C_8 
REMARK    3  A    between atoms: C_8  and  C_9 
REMARK    4  A    between atoms: C_9  and  C_15 
REMARK    5  A    between atoms: C_9  and  C_14 
REMARK    6  A    between atoms: C_11  and  C_12 
REMARK    7  A    between atoms: C_12  and  C_13 
REMARK    8  A    between atoms: C_13  and  C_14 
REMARK    9  A    between atoms: C_15  and  C_16 
REMARK       I    between atoms: C_16  and  N_18 
REMARK   10  A    between atoms: N_18  and  C_20 
ROOT
HETATM    1  C   UNL     1       9.426  -0.688  21.874  1.00  0.00     0.108 C 
ENDROOT
BRANCH   1   2
HETATM    2  C   UNL     1       8.914  -0.192  20.885  1.00  0.00     0.011 C 
BRANCH   2   3
HETATM    3  C   UNL     1       8.029  -0.036  20.081  1.00  0.00     0.097 C 
HETATM    4  N   UNL     1       7.159   0.568  19.480  1.00  0.00    -0.296 N 
ATOM      5  HN  UNL     1       7.353   1.541  19.241  1.00  0.00     0.177 HD
BRANCH   4   6
HETATM    6  S   UNL     1       5.739  -0.022  19.031  1.00  0.00     0.226 S 
HETATM    7  C   UNL     1       4.605   1.245  19.418  1.00  0.00     0.186 C 
HETATM    8  O   UNL     1       5.677  -0.232  17.590  1.00  0.00    -0.206 OA
HETATM    9  O   UNL     1       5.365  -1.212  19.748  1.00  0.00    -0.206 OA
ENDBRANCH   4   6
ENDBRANCH   2   3
ENDBRANCH   1   2
BRANCH   1  10
HETATM   10  C   UNL     1       8.632  -1.591  22.177  1.00  0.00    -0.071 C 
BRANCH  10  11
HETATM   11  C   UNL     1       7.672  -2.360  22.568  1.00  0.00     0.289 C 
HETATM   12  O   UNL     1       6.719  -1.805  22.848  1.00  0.00    -0.259 OA
HETATM   13  N   UNL     1       7.969  -3.653  22.616  1.00  0.00    -0.315 N 
ATOM     14  HN  UNL     1       8.898  -3.972  22.343  1.00  0.00     0.170 HD
BRANCH  13  15
HETATM   15  C   UNL     1       7.114  -4.480  22.996  1.00  0.00     0.057 A 
HETATM   16  C   UNL     1       6.180  -5.214  22.416  1.00  0.00     0.117 A 
HETATM   17  N   UNL     1       5.276  -6.053  22.456  1.00  0.00    -0.373 N 
HETATM   18  C   UNL     1       5.266  -6.244  23.760  1.00  0.00     0.088 A 
ATOM     19  HN  UNL     1       4.713  -6.468  21.714  1.00  0.00     0.164 HD
HETATM   20  C   UNL     1       6.002  -5.718  24.664  1.00  0.00     0.026 A 
HETATM   21  C   UNL     1       6.958  -4.823  24.533  1.00  0.00    -0.033 A 
HETATM   22  C   UNL     1       7.863  -4.151  25.599  1.00  0.00     0.050 C 
ENDBRANCH  13  15
ENDBRANCH  10  11
ENDBRANCH   1  10
BRANCH   1  23
HETATM   23  C   UNL     1       9.792   0.186  23.263  1.00  0.00    -0.010 C 
BRANCH  23  24
HETATM   24  C   UNL     1      10.593  -0.075  23.964  1.00  0.00    -0.025 C 
BRANCH  24  25
HETATM   25  C   UNL     1      11.579   0.549  24.530  1.00  0.00     0.053 C 
BRANCH  25  26
HETATM   26  C   UNL     1      12.870  -0.305  24.429  1.00  0.00    -0.033 C 
HETATM   27  C   UNL     1      13.210  -0.857  23.750  1.00  0.00     0.007 C 
ENDBRANCH  25  26
ENDBRANCH  24  25
ENDBRANCH  23  24
ENDBRANCH   1  23
TORSDOF 10
ENDMDL
MODEL 4
REMARK VINA RESULT:    -6.103      2.710      6.108
REMARK INTER + INTRA:         -11.048
REMARK INTER:                  -9.344
REMARK INTRA:                  -1.704
REMARK UNBOUND:                -1.376
REMARK  10 active torsions:
REMARK  status: ('A' for Active; 'I' for Inactive)
REMARK    1  A    between atoms: S_2  and  N_5 
REMARK    2  A    between atoms: C_7  and  C_8 
REMARK    3  A    between atoms: C_8  and  C_9 
REMARK    4  A    between atoms: C_9  and  C_15 
REMARK    5  A    between atoms: C_9  and  C_14 
REMARK    6  A    between atoms: C_11  and  C_12 
REMARK    7  A    between atoms: C_12  and  C_13 
REMARK    8  A    between atoms: C_13  and  C_14 
REMARK    9  A    between atoms: C_15  and  C_16 
REMARK       I    between atoms: C_16  and  N_18 
REMARK   10  A    between atoms: N_18  and  C_20 
ROOT
HETATM    1  C   UNL     1      10.057  -1.925  22.846  1.00  0.00     0.108 C 
ENDROOT
BRANCH   1   2
HETATM    2  C   UNL     1       9.220  -1.552  22.043  1.00  0.00     0.011 C 
BRANCH   2   3
HETATM    3  C   UNL     1       8.505  -0.735  21.517  1.00  0.00     0.097 C 
HETATM    4  N   UNL     1       7.568   0.038  21.430  1.00  0.00    -0.296 N 
ATOM      5  HN  UNL     1       7.340   0.585  22.260  1.00  0.00     0.177 HD
BRANCH   4   6
HETATM    6  S   UNL     1       6.661   0.276  20.131  1.00  0.00     0.226 S 
HETATM    7  C   UNL     1       5.734   1.705  20.510  1.00  0.00     0.186 C 
HETATM    8  O   UNL     1       7.471   0.586  18.960  1.00  0.00    -0.206 OA
HETATM    9  O   UNL     1       5.752  -0.807  19.866  1.00  0.00    -0.206 OA
ENDBRANCH   4   6
ENDBRANCH   2   3
ENDBRANCH   1   2
BRANCH   1  10
HETATM   10  C   UNL     1       9.376  -2.237  23.835  1.00  0.00    -0.071 C 
BRANCH  10  11
HETATM   11  C   UNL     1       8.683  -2.775  24.781  1.00  0.00     0.289 C 
HETATM   12  O   UNL     1       8.466  -2.076  25.652  1.00  0.00    -0.259 OA
HETATM   13  N   UNL     1       8.378  -4.054  24.599  1.00  0.00    -0.315 N 
ATOM     14  HN  UNL     1       8.680  -4.533  23.751  1.00  0.00     0.170 HD
BRANCH  13  15
HETATM   15  C   UNL     1       7.722  -4.673  25.463  1.00  0.00     0.057 A 
HETATM   16  C   UNL     1       8.000  -5.325  26.578  1.00  0.00     0.117 A 
HETATM   17  N   UNL     1       7.658  -5.963  27.579  1.00  0.00    -0.373 N 
HETATM   18  C   UNL     1       6.365  -6.010  27.329  1.00  0.00     0.088 A 
ATOM     19  HN  UNL     1       8.205  -6.337  28.354  1.00  0.00     0.164 HD
HETATM   20  C   UNL     1       5.707  -5.512  26.351  1.00  0.00     0.026 A 
HETATM   21  C   UNL     1       6.155  -4.834  25.317  1.00  0.00    -0.033 A 
HETATM   22  C   UNL     1       5.397  -4.225  24.107  1.00  0.00     0.050 C 
ENDBRANCH  13  15
ENDBRANCH  10  11
ENDBRANCH   1  10
BRANCH   1  23
HETATM   23  C   UNL     1      11.335  -0.963  23.363  1.00  0.00    -0.010 C 
BRANCH  23  24
HETATM   24  C   UNL     1      11.237   0.088  23.658  1.00  0.00    -0.025 C 
BRANCH  24  25
HETATM   25  C   UNL     1      10.939   0.729  24.746  1.00  0.00     0.053 C 
BRANCH  25  26
HETATM   26  C   UNL     1       9.590   1.473  24.566  1.00  0.00    -0.033 C 
HETATM   27  C   UNL     1       8.762   1.392  25.000  1.00  0.00     0.007 C 
ENDBRANCH  25  26
ENDBRANCH  24  25
ENDBRANCH  23  24
ENDBRANCH   1  23
TORSDOF 10
ENDMDL
MODEL 5
REMARK VINA RESULT:    -6.018      2.514      6.247
REMARK INTER + INTRA:         -10.913
REMARK INTER:                  -9.877
REMARK INTRA:                  -1.036
REMARK UNBOUND:                -1.376
REMARK  10 active torsions:
REMARK  status: ('A' for Active; 'I' for Inactive)
REMARK    1  A    between atoms: S_2  and  N_5 
REMARK    2  A    between atoms: C_7  and  C_8 
REMARK    3  A    between atoms: C_8  and  C_9 
REMARK    4  A    between atoms: C_9  and  C_15 
REMARK    5  A    between atoms: C_9  and  C_14 
REMARK    6  A    between atoms: C_11  and  C_12 
REMARK    7  A    between atoms: C_12  and  C_13 
REMARK    8  A    between atoms: C_13  and  C_14 
REMARK    9  A    between atoms: C_15  and  C_16 
REMARK       I    between atoms: C_16  and  N_18 
REMARK   10  A    between atoms: N_18  and  C_20 
ROOT
HETATM    1  C   UNL     1       8.577  -2.235  22.667  1.00  0.00     0.108 C 
ENDROOT
BRANCH   1   2
HETATM    2  C   UNL     1       7.679  -1.881  21.925  1.00  0.00     0.011 C 
BRANCH   2   3
HETATM    3  C   UNL     1       7.099  -1.095  21.216  1.00  0.00     0.097 C 
HETATM    4  N   UNL     1       6.146  -0.603  20.639  1.00  0.00    -0.296 N 
ATOM      5  HN  UNL     1       5.260  -0.580  21.145  1.00  0.00     0.177 HD
BRANCH   4   6
HETATM    6  S   UNL     1       6.154   0.010  19.159  1.00  0.00     0.226 S 
HETATM    7  C   UNL     1       4.951   1.273  19.210  1.00  0.00     0.186 C 
HETATM    8  O   UNL     1       7.430   0.643  18.848  1.00  0.00    -0.206 OA
HETATM    9  O   UNL     1       5.782  -0.942  18.146  1.00  0.00    -0.206 OA
ENDBRANCH   4   6
ENDBRANCH   2   3
ENDBRANCH   1   2
BRANCH   1  10
HETATM   10  C   UNL     1       8.162  -3.316  23.113  1.00  0.00    -0.071 C 
BRANCH  10  11
HETATM   11  C   UNL     1       7.605  -4.309  23.719  1.00  0.00     0.289 C 
HETATM   12  O   UNL     1       7.870  -5.326  23.282  1.00  0.00    -0.259 OA
HETATM   13  N   UNL     1       6.792  -3.978  24.715  1.00  0.00    -0.315 N 
ATOM     14  HN  UNL     1       6.657  -2.997  24.956  1.00  0.00     0.170 HD
BRANCH  13  15
HETATM   15  C   UNL     1       6.191  -4.865  25.356  1.00  0.00     0.057 A 
HETATM   16  C   UNL     1       6.456  -5.617  26.411  1.00  0.00     0.117 A 
HETATM   17  N   UNL     1       6.141  -6.476  27.240  1.00  0.00    -0.373 N 
HETATM   18  C   UNL     1       4.953  -6.771  26.753  1.00  0.00     0.088 A 
ATOM     19  HN  UNL     1       6.643  -6.843  28.048  1.00  0.00     0.164 HD
HETATM   20  C   UNL     1       4.343  -6.275  25.742  1.00  0.00     0.026 A 
HETATM   21  C   UNL     1       4.754  -5.348  24.904  1.00  0.00    -0.033 A 
HETATM   22  C   UNL     1       4.055  -4.730  23.664  1.00  0.00     0.050 C 
ENDBRANCH  13  15
ENDBRANCH  10  11
ENDBRANCH   1  10
BRANCH   1  23
HETATM   23  C   UNL     1       9.133  -1.307  23.955  1.00  0.00    -0.010 C 
BRANCH  23  24
HETATM   24  C   UNL     1      10.146  -0.895  24.027  1.00  0.00    -0.025 C 
BRANCH  24  25
HETATM   25  C   UNL     1      10.785  -0.125  24.853  1.00  0.00     0.053 C 
BRANCH  25  26
HETATM   26  C   UNL     1      12.201   0.181  24.299  1.00  0.00    -0.033 C 
HETATM   27  C   UNL     1      13.001  -0.311  24.305  1.00  0.00     0.007 C 
ENDBRANCH  25  26
ENDBRANCH  24  25
ENDBRANCH  23  24
ENDBRANCH   1  23
TORSDOF 10
ENDMDL
MODEL 6
REMARK VINA RESULT:    -5.815      2.666      5.708
REMARK INTER + INTRA:         -10.591
REMARK INTER:                  -8.940
REMARK INTRA:                  -1.650
REMARK UNBOUND:                -1.376
REMARK  10 active torsions:
REMARK  status: ('A' for Active; 'I' for Inactive)
REMARK    1  A    between atoms: S_2  and  N_5 
REMARK    2  A    between atoms: C_7  and  C_8 
REMARK    3  A    between atoms: C_8  and  C_9 
REMARK    4  A    between atoms: C_9  and  C_15 
REMARK    5  A    between atoms: C_9  and  C_14 
REMARK    6  A    between atoms: C_11  and  C_12 
REMARK    7  A    between atoms: C_12  and  C_13 
REMARK    8  A    between atoms: C_13  and  C_14 
REMARK    9  A    between atoms: C_15  and  C_16 
REMARK       I    between atoms: C_16  and  N_18 
REMARK   10  A    between atoms: N_18  and  C_20 
ROOT
HETATM    1  C   UNL     1       9.991   0.423  21.774  1.00  0.00     0.108 C 
ENDROOT
BRANCH   1   2
HETATM    2  C   UNL     1       9.048   0.518  21.008  1.00  0.00     0.011 C 
BRANCH   2   3
HETATM    3  C   UNL     1       8.204   0.085  20.263  1.00  0.00     0.097 C 
HETATM    4  N   UNL     1       7.600  -0.042  19.213  1.00  0.00    -0.296 N 
ATOM      5  HN  UNL     1       8.155  -0.050  18.357  1.00  0.00     0.177 HD
BRANCH   4   6
HETATM    6  S   UNL     1       6.013  -0.197  19.052  1.00  0.00     0.226 S 
HETATM    7  C   UNL     1       5.365   1.262  19.755  1.00  0.00     0.186 C 
HETATM    8  O   UNL     1       5.616  -0.213  17.650  1.00  0.00    -0.206 OA
HETATM    9  O   UNL     1       5.478  -1.329  19.760  1.00  0.00    -0.206 OA
ENDBRANCH   4   6
ENDBRANCH   2   3
ENDBRANCH   1   2
BRANCH   1  10
HETATM   10  C   UNL     1       9.714  -0.589  22.435  1.00  0.00    -0.071 C 
BRANCH  10  11
HETATM   11  C   UNL     1       9.652  -1.654  23.162  1.00  0.00     0.289 C 
HETATM   12  O   UNL     1      10.602  -2.280  23.148  1.00  0.00    -0.259 OA
HETATM   13  N   UNL     1       8.487  -1.857  23.764  1.00  0.00    -0.315 N 
ATOM     14  HN  UNL     1       7.728  -1.188  23.643  1.00  0.00     0.170 HD
BRANCH  13  15
HETATM   15  C   UNL     1       8.318  -2.867  24.479  1.00  0.00     0.057 A 
HETATM   16  C   UNL     1       8.572  -3.194  25.735  1.00  0.00     0.117 A 
HETATM   17  N   UNL     1       8.533  -3.986  26.681  1.00  0.00    -0.373 N 
HETATM   18  C   UNL     1       7.988  -5.002  26.044  1.00  0.00     0.088 A 
ATOM     19  HN  UNL     1       8.831  -3.886  27.651  1.00  0.00     0.164 HD
HETATM   20  C   UNL     1       7.608  -5.087  24.825  1.00  0.00     0.026 A 
HETATM   21  C   UNL     1       7.682  -4.183  23.873  1.00  0.00    -0.033 A 
HETATM   22  C   UNL     1       7.247  -4.249  22.384  1.00  0.00     0.050 C 
ENDBRANCH  13  15
ENDBRANCH  10  11
ENDBRANCH   1  10
BRANCH   1  23
HETATM   23  C   UNL     1      10.446   1.644  22.837  1.00  0.00    -0.010 C 
BRANCH  23  24
HETATM   24  C   UNL     1       9.764   2.407  23.228  1.00  0.00    -0.025 C 
BRANCH  24  25
HETATM   25  C   UNL     1       9.359   2.786  24.402  1.00  0.00     0.053 C 
BRANCH  25  26
HETATM   26  C   UNL     1       8.713   1.590  25.147  1.00  0.00    -0.033 C 
HETATM   27  C   UNL     1       7.822   1.388  25.363  1.00  0.00     0.007 C 
ENDBRANCH  25  26
ENDBRANCH  24  25
ENDBRANCH  23  24
ENDBRANCH   1  23
TORSDOF 10
ENDMDL
MODEL 7
REMARK VINA RESULT:    -5.782      2.107      2.158
REMARK INTER + INTRA:         -10.538
REMARK INTER:                  -9.209
REMARK INTRA:                  -1.328
REMARK UNBOUND:                -1.376
REMARK  10 active torsions:
REMARK  status: ('A' for Active; 'I' for Inactive)
REMARK    1  A    between atoms: S_2  and  N_5 
REMARK    2  A    between atoms: C_7  and  C_8 
REMARK    3  A    between atoms: C_8  and  C_9 
REMARK    4  A    between atoms: C_9  and  C_15 
REMARK    5  A    between atoms: C_9  and  C_14 
REMARK    6  A    between atoms: C_11  and  C_12 
REMARK    7  A    between atoms: C_12  and  C_13 
REMARK    8  A    between atoms: C_13  and  C_14 
REMARK    9  A    between atoms: C_15  and  C_16 
REMARK       I    between atoms: C_16  and  N_18 
REMARK   10  A    between atoms: N_18  and  C_20 
ROOT
HETATM    1  C   UNL     1       8.311  -0.999  24.405  1.00  0.00     0.108 C 
ENDROOT
BRANCH   1   2
HETATM    2  C   UNL     1       8.200  -2.213  24.399  1.00  0.00     0.011 C 
BRANCH   2   3
HETATM    3  C   UNL     1       7.987  -3.288  24.902  1.00  0.00     0.097 C 
HETATM    4  N   UNL     1       7.697  -4.471  24.930  1.00  0.00    -0.296 N 
ATOM      5  HN  UNL     1       8.066  -5.056  24.180  1.00  0.00     0.177 HD
BRANCH   4   6
HETATM    6  S   UNL     1       6.789  -5.193  26.036  1.00  0.00     0.226 S 
HETATM    7  C   UNL     1       6.079  -3.877  26.934  1.00  0.00     0.186 C 
HETATM    8  O   UNL     1       5.696  -5.940  25.428  1.00  0.00    -0.206 OA
HETATM    9  O   UNL     1       7.545  -6.017  26.942  1.00  0.00    -0.206 OA
ENDBRANCH   4   6
ENDBRANCH   2   3
ENDBRANCH   1   2
BRANCH   1  10
HETATM   10  C   UNL     1       8.234  -0.705  23.202  1.00  0.00    -0.071 C 
BRANCH  10  11
HETATM   11  C   UNL     1       7.929  -0.435  21.978  1.00  0.00     0.289 C 
HETATM   12  O   UNL     1       8.827  -0.226  21.312  1.00  0.00    -0.259 OA
HETATM   13  N   UNL     1       6.628  -0.406  21.715  1.00  0.00    -0.315 N 
ATOM     14  HN  UNL     1       5.955  -0.602  22.455  1.00  0.00     0.170 HD
BRANCH  13  15
HETATM   15  C   UNL     1       6.227  -0.140  20.563  1.00  0.00     0.057 A 
HETATM   16  C   UNL     1       6.058  -0.812  19.437  1.00  0.00     0.117 A 
HETATM   17  N   UNL     1       5.708  -0.884  18.255  1.00  0.00    -0.373 N 
HETATM   18  C   UNL     1       5.386   0.383  18.086  1.00  0.00     0.088 A 
ATOM     19  HN  UNL     1       5.677  -1.674  17.612  1.00  0.00     0.164 HD
HETATM   20  C   UNL     1       5.419   1.349  18.925  1.00  0.00     0.026 A 
HETATM   21  C   UNL     1       5.807   1.337  20.181  1.00  0.00    -0.033 A 
HETATM   22  C   UNL     1       5.875   2.484  21.225  1.00  0.00     0.050 C 
ENDBRANCH  13  15
ENDBRANCH  10  11
ENDBRANCH   1  10
BRANCH   1  23
HETATM   23  C   UNL     1       9.632  -0.196  25.065  1.00  0.00    -0.010 C 
BRANCH  23  24
HETATM   24  C   UNL     1      10.622  -0.145  24.596  1.00  0.00    -0.025 C 
BRANCH  24  25
HETATM   25  C   UNL     1      11.559   0.745  24.485  1.00  0.00     0.053 C 
BRANCH  25  26
HETATM   26  C   UNL     1      10.989   2.029  23.828  1.00  0.00    -0.033 C 
HETATM   27  C   UNL     1      10.798   2.250  22.936  1.00  0.00     0.007 C 
ENDBRANCH  25  26
ENDBRANCH  24  25
ENDBRANCH  23  24
ENDBRANCH   1  23
TORSDOF 10
ENDMDL
MODEL 8
REMARK VINA RESULT:    -5.615      3.053      7.086
REMARK INTER + INTRA:         -10.274
REMARK INTER:                  -8.991
REMARK INTRA:                  -1.284
REMARK UNBOUND:                -1.376
REMARK  10 active torsions:
REMARK  status: ('A' for Active; 'I' for Inactive)
REMARK    1  A    between atoms: S_2  and  N_5 
REMARK    2  A    between atoms: C_7  and  C_8 
REMARK    3  A    between atoms: C_8  and  C_9 
REMARK    4  A    between atoms: C_9  and  C_15 
REMARK    5  A    between atoms: C_9  and  C_14 
REMARK    6  A    between atoms: C_11  and  C_12 
REMARK    7  A    between atoms: C_12  and  C_13 
REMARK    8  A    between atoms: C_13  and  C_14 
REMARK    9  A    between atoms: C_15  and  C_16 
REMARK       I    between atoms: C_16  and  N_18 
REMARK   10  A    between atoms: N_18  and  C_20 
ROOT
HETATM    1  C   UNL     1       7.363   0.477  21.299  1.00  0.00     0.108 C 
ENDROOT
BRANCH   1   2
HETATM    2  C   UNL     1       8.438   1.041  21.409  1.00  0.00     0.011 C 
BRANCH   2   3
HETATM    3  C   UNL     1       9.429   1.387  22.002  1.00  0.00     0.097 C 
HETATM    4  N   UNL     1      10.584   1.319  22.383  1.00  0.00    -0.296 N 
ATOM      5  HN  UNL     1      11.276   0.995  21.707  1.00  0.00     0.177 HD
BRANCH   4   6
HETATM    6  S   UNL     1      11.117   1.690  23.848  1.00  0.00     0.226 S 
HETATM    7  C   UNL     1      12.340   0.490  24.178  1.00  0.00     0.186 C 
HETATM    8  O   UNL     1      11.774   2.991  23.866  1.00  0.00    -0.206 OA
HETATM    9  O   UNL     1      10.100   1.604  24.862  1.00  0.00    -0.206 OA
ENDBRANCH   4   6
ENDBRANCH   2   3
ENDBRANCH   1   2
BRANCH   1  10
HETATM   10  C   UNL     1       7.337  -0.270  22.289  1.00  0.00    -0.071 C 
BRANCH  10  11
HETATM   11  C   UNL     1       7.189  -1.189  23.182  1.00  0.00     0.289 C 
HETATM   12  O   UNL     1       6.226  -1.099  23.783  1.00  0.00    -0.259 OA
HETATM   13  N   UNL     1       8.193  -2.051  23.278  1.00  0.00    -0.315 N 
ATOM     14  HN  UNL     1       8.999  -1.963  22.659  1.00  0.00     0.170 HD
BRANCH  13  15
HETATM   15  C   UNL     1       8.154  -2.970  24.123  1.00  0.00     0.057 A 
HETATM   16  C   UNL     1       8.497  -3.107  25.392  1.00  0.00     0.117 A 
HETATM   17  N   UNL     1       8.579  -3.769  26.431  1.00  0.00    -0.373 N 
HETATM   18  C   UNL     1       8.100  -4.903  25.960  1.00  0.00     0.088 A 
ATOM     19  HN  UNL     1       8.912  -3.518  27.361  1.00  0.00     0.164 HD
HETATM   20  C   UNL     1       7.672  -5.179  24.785  1.00  0.00     0.026 A 
HETATM   21  C   UNL     1       7.616  -4.403  23.725  1.00  0.00    -0.033 A 
HETATM   22  C   UNL     1       7.118  -4.700  22.285  1.00  0.00     0.050 C 
ENDBRANCH  13  15
ENDBRANCH  10  11
ENDBRANCH   1  10
BRANCH   1  23
HETATM   23  C   UNL     1       6.922  -0.417  19.945  1.00  0.00    -0.010 C 
BRANCH  23  24
HETATM   24  C   UNL     1       6.657   0.020  18.976  1.00  0.00    -0.025 C 
BRANCH  24  25
HETATM   25  C   UNL     1       5.560   0.369  18.377  1.00  0.00     0.053 C 
BRANCH  25  26
HETATM   26  C   UNL     1       4.973   1.637  19.050  1.00  0.00    -0.033 C 
HETATM   27  C   UNL     1       4.160   1.798  19.492  1.00  0.00     0.007 C 
ENDBRANCH  25  26
ENDBRANCH  24  25
ENDBRANCH  23  24
ENDBRANCH   1  23
TORSDOF 10
ENDMDL
MODEL 9
REMARK VINA RESULT:    -5.599     23.798     27.146
REMARK INTER + INTRA:         -10.248
REMARK INTER:                  -8.915
REMARK INTRA:                  -1.333
REMARK UNBOUND:                -1.376
REMARK  10 active torsions:
REMARK  status: ('A' for Active; 'I' for Inactive)
REMARK    1  A    between atoms: S_2  and  N_5 
REMARK    2  A    between atoms: C_7  and  C_8 
REMARK    3  A    between atoms: C_8  and  C_9 
REMARK    4  A    between atoms: C_9  and  C_15 
REMARK    5  A    between atoms: C_9  and  C_14 
REMARK    6  A    between atoms: C_11  and  C_12 
REMARK    7  A    between atoms: C_12  and  C_13 
REMARK    8  A    between atoms: C_13  and  C_14 
REMARK    9  A    between atoms: C_15  and  C_16 
REMARK       I    between atoms: C_16  and  N_18 
REMARK   10  A    between atoms: N_18  and  C_20 
ROOT
HETATM    1  C   UNL     1       8.204  17.812   1.568  1.00  0.00     0.108 C 
ENDROOT
BRANCH   1   2
HETATM    2  C   UNL     1       8.825  18.203   2.540  1.00  0.00     0.011 C 
BRANCH   2   3
HETATM    3  C   UNL     1       9.786  18.669   3.101  1.00  0.00     0.097 C 
HETATM    4  N   UNL     1      10.929  19.076   3.208  1.00  0.00    -0.296 N 
ATOM      5  HN  UNL     1      11.303  19.615   2.427  1.00  0.00     0.177 HD
BRANCH   4   6
HETATM    6  S   UNL     1      11.899  18.843   4.462  1.00  0.00     0.226 S 
HETATM    7  C   UNL     1      12.385  20.450   4.935  1.00  0.00     0.186 C 
HETATM    8  O   UNL     1      11.185  18.259   5.591  1.00  0.00    -0.206 OA
HETATM    9  O   UNL     1      13.075  18.081   4.137  1.00  0.00    -0.206 OA
ENDBRANCH   4   6
ENDBRANCH   2   3
ENDBRANCH   1   2
BRANCH   1  10
HETATM   10  C   UNL     1       8.375  16.584   1.602  1.00  0.00    -0.071 C 
BRANCH  10  11
HETATM   11  C   UNL     1       8.329  15.297   1.684  1.00  0.00     0.289 C 
HETATM   12  O   UNL     1       9.350  14.795   1.662  1.00  0.00    -0.259 OA
HETATM   13  N   UNL     1       7.108  14.778   1.737  1.00  0.00    -0.315 N 
ATOM     14  HN  UNL     1       6.294  15.392   1.724  1.00  0.00     0.170 HD
BRANCH  13  15
HETATM   15  C   UNL     1       6.954  13.541   1.803  1.00  0.00     0.057 A 
HETATM   16  C   UNL     1       6.845  12.551   0.934  1.00  0.00     0.117 A 
HETATM   17  N   UNL     1       6.720  11.353   0.660  1.00  0.00    -0.373 N 
HETATM   18  C   UNL     1       6.616  10.897   1.892  1.00  0.00     0.088 A 
ATOM     19  HN  UNL     1       6.703  10.869  -0.237  1.00  0.00     0.164 HD
HETATM   20  C   UNL     1       6.661  11.534   3.001  1.00  0.00     0.026 A 
HETATM   21  C   UNL     1       6.802  12.825   3.205  1.00  0.00    -0.033 A 
HETATM   22  C   UNL     1       6.848  13.637   4.527  1.00  0.00     0.050 C 
ENDBRANCH  13  15
ENDBRANCH  10  11
ENDBRANCH   1  10
BRANCH   1  23
HETATM   23  C   UNL     1       8.502  18.348   0.002  1.00  0.00    -0.010 C 
BRANCH  23  24
HETATM   24  C   UNL     1       8.760  19.381  -0.258  1.00  0.00    -0.025 C 
BRANCH  24  25
HETATM   25  C   UNL     1       8.212  20.547  -0.106  1.00  0.00     0.053 C 
BRANCH  25  26
HETATM   26  C   UNL     1       9.310  21.619   0.116  1.00  0.00    -0.033 C 
HETATM   27  C   UNL     1      10.158  21.581   0.518  1.00  0.00     0.007 C 
ENDBRANCH  25  26
ENDBRANCH  24  25
ENDBRANCH  23  24
ENDBRANCH   1  23
TORSDOF 10
ENDMDL
