stable:False satoms:23 tatoms:24 sratio:0.9583333333333334
  -OEChem-07092417273D

 24 24  0     1  0  0  0  0  0999 V2000
    7.8808   -1.4851   22.1555 N   0  3  0  0  0  0  0  0  0  0  0  0
    9.9291    1.0560   22.8112 O   0  0  0  0  0  0  0  0  0  0  0  0
    5.8613   -2.2428   24.0838 C   0  0  0  0  0  0  0  0  0  0  0  0
    5.0117   -2.6953   24.5862 H   0  0  0  0  0  0  0  0  0  0  0  0
    6.3334   -1.0872   24.8488 C   0  0  0  0  0  0  0  0  0  0  0  0
    8.0355   -0.5747   23.0761 C   0  0  3  0  0  0  0  0  0  0  0  0
   11.4680   -1.3122   22.8421 H   0  0  0  0  0  0  0  0  0  0  0  0
    8.7178   -1.3153   21.0121 C   0  0  0  0  0  0  0  0  0  0  0  0
    8.2341    0.9944   24.8089 S   0  0  0  0  0  0  0  0  0  0  0  0
    6.6687   -2.9777   24.0039 H   0  0  0  0  0  0  0  0  0  0  0  0
    7.3356   -0.3392   24.2784 C   0  0  0  0  0  0  0  0  0  0  0  0
    5.5849   -1.9471   23.0692 H   0  0  0  0  0  0  0  0  0  0  0  0
   10.6852   -1.9067   22.3649 C   0  0  0  0  0  0  0  0  0  0  0  0
   10.8159   -1.1699   19.3434 H   0  0  0  0  0  0  0  0  0  0  0  0
    8.9745    0.5490   23.3364 C   0  0  0  0  0  0  0  0  0  0  0  0
    8.5977   -2.1939   20.3525 H   0  0  0  0  0  0  0  0  0  0  0  0
   11.0659    0.3566   20.2256 H   0  0  0  0  0  0  0  0  0  0  0  0
    9.9423   -2.1871   23.1089 H   0  0  0  0  0  0  0  0  0  0  0  0
   11.0597   -0.7364   20.3154 C   0  0  0  0  0  0  0  0  0  0  0  0
   11.1280   -2.8275   21.9617 H   0  0  0  0  0  0  0  0  0  0  0  0
    5.7223   -0.6365   26.3493 Cl  0  0  0  0  0  0  0  0  0  0  0  0
   12.0743   -1.0484   20.5981 H   0  0  0  0  0  0  0  0  0  0  0  0
    8.3537   -0.4466   20.4496 H   0  0  0  0  0  0  0  0  0  0  0  0
   10.1037   -1.1166   21.3147 N   0  3  0  0  0  0  0  0  0  0  0  0
 14 19  1  0  0  0  0
 17 19  1  0  0  0  0
 19 22  1  0  0  0  0
 19 24  1  0  0  0  0
  8 16  1  0  0  0  0
  8 23  1  0  0  0  0
  8 24  1  0  0  0  0
  1  8  1  0  0  0  0
 13 24  1  0  0  0  0
 13 20  1  0  0  0  0
  1  6  1  0  0  0  0
  7 13  1  0  0  0  0
 13 18  1  0  0  0  0
  2 15  2  0  0  0  0
  3 12  1  0  0  0  0
  6 15  1  0  0  0  0
  6 11  1  0  0  0  0
  9 15  1  0  0  0  0
  3 10  1  0  0  0  0
  3  4  1  0  0  0  0
  3  5  1  0  0  0  0
  9 11  1  0  0  0  0
  5 11  2  0  0  0  0
  5 21  1  0  0  0  0
M  CHG  2   1   1  24   1
M  END
> <Shapegauss>
-87.048599

$$$$
