MODEL 1
REMARK VINA RESULT:    -4.476      0.000      0.000
REMARK INTER + INTRA:          -5.783
REMARK INTER:                  -5.523
REMARK INTRA:                  -0.261
REMARK UNBOUND:                -0.261
REMARK  4 active torsions:
REMARK  status: ('A' for Active; 'I' for Inactive)
REMARK    1  A    between atoms: N_1  and  C_7 
REMARK    2  A    between atoms: N_1  and  C_6 
REMARK    3  A    between atoms: C_5  and  C_9 
REMARK    4  A    between atoms: C_7  and  N_14 
ROOT
HETATM    1  O   UNL     1       8.307   0.289  20.244  1.00  0.00    -0.278 OA
HETATM    2  C   UNL     1       9.587  -1.006  21.976  1.00  0.00     0.106 A 
HETATM    3  S   UNL     1      10.152   1.266  21.827  1.00  0.00    -0.042 SA
HETATM    4  C   UNL     1      10.520  -0.176  22.633  1.00  0.00     0.057 A 
HETATM    5  C   UNL     1       9.105   0.115  21.124  1.00  0.00     0.241 A 
ENDROOT
BRANCH   2   6
HETATM    6  N   UNL     1       9.333  -2.279  22.098  1.00  0.00    -0.369 N 
ATOM      7  HN  UNL     1       9.864  -2.998  21.607  1.00  0.00     0.161 HD
BRANCH   6   8
HETATM    8  C   UNL     1       8.249  -2.582  22.975  1.00  0.00     0.240 C 
BRANCH   8   9
HETATM    9  N   UNL     1       7.345  -3.577  22.482  1.00  0.00    -0.406 N 
HETATM   10  C   UNL     1       7.352  -4.868  23.114  1.00  0.00     0.144 C 
HETATM   11  C   UNL     1       6.068  -3.242  21.920  1.00  0.00     0.144 C 
ENDBRANCH   8   9
ENDBRANCH   6   8
ENDBRANCH   2   6
BRANCH   4  12
HETATM   12  C   UNL     1      11.493  -0.527  23.540  1.00  0.00     0.027 C 
HETATM   13  C   UNL     1      11.452   0.147  24.839  1.00  0.00     0.063 C 
HETATM   14 CL   UNL     1      12.643  -1.675  23.108  1.00  0.00    -0.088 Cl
ENDBRANCH   4  12
TORSDOF 4
ENDMDL
MODEL 2
REMARK VINA RESULT:    -4.248      4.174      6.124
REMARK INTER + INTRA:          -5.502
REMARK INTER:                  -5.227
REMARK INTRA:                  -0.275
REMARK UNBOUND:                -0.261
REMARK  4 active torsions:
REMARK  status: ('A' for Active; 'I' for Inactive)
REMARK    1  A    between atoms: N_1  and  C_7 
REMARK    2  A    between atoms: N_1  and  C_6 
REMARK    3  A    between atoms: C_5  and  C_9 
REMARK    4  A    between atoms: C_7  and  N_14 
ROOT
HETATM    1  O   UNL     1       8.904  -4.402  26.980  1.00  0.00    -0.278 OA
HETATM    2  C   UNL     1       8.183  -4.090  24.594  1.00  0.00     0.106 A 
HETATM    3  S   UNL     1       6.705  -5.347  25.913  1.00  0.00    -0.042 SA
HETATM    4  C   UNL     1       6.960  -4.750  24.350  1.00  0.00     0.057 A 
HETATM    5  C   UNL     1       8.193  -4.516  26.019  1.00  0.00     0.241 A 
ENDROOT
BRANCH   2   6
HETATM    6  N   UNL     1       8.968  -3.414  23.802  1.00  0.00    -0.369 N 
ATOM      7  HN  UNL     1       9.523  -3.854  23.068  1.00  0.00     0.161 HD
BRANCH   6   8
HETATM    8  C   UNL     1       8.986  -2.009  24.049  1.00  0.00     0.240 C 
BRANCH   8   9
HETATM    9  N   UNL     1      10.293  -1.421  24.038  1.00  0.00    -0.406 N 
HETATM   10  C   UNL     1      11.100  -1.592  22.862  1.00  0.00     0.144 C 
HETATM   11  C   UNL     1      10.593  -0.209  24.744  1.00  0.00     0.144 C 
ENDBRANCH   8   9
ENDBRANCH   6   8
ENDBRANCH   2   6
BRANCH   4  12
HETATM   12  C   UNL     1       6.305  -4.931  23.154  1.00  0.00     0.027 C 
HETATM   13  C   UNL     1       5.127  -4.095  22.919  1.00  0.00     0.063 C 
HETATM   14 CL   UNL     1       6.881  -6.077  22.066  1.00  0.00    -0.088 Cl
ENDBRANCH   4  12
TORSDOF 4
ENDMDL
MODEL 3
REMARK VINA RESULT:    -4.214      2.437      4.707
REMARK INTER + INTRA:          -5.460
REMARK INTER:                  -5.040
REMARK INTRA:                  -0.420
REMARK UNBOUND:                -0.261
REMARK  4 active torsions:
REMARK  status: ('A' for Active; 'I' for Inactive)
REMARK    1  A    between atoms: N_1  and  C_7 
REMARK    2  A    between atoms: N_1  and  C_6 
REMARK    3  A    between atoms: C_5  and  C_9 
REMARK    4  A    between atoms: C_7  and  N_14 
ROOT
HETATM    1  O   UNL     1       9.350   0.708  21.040  1.00  0.00    -0.278 OA
HETATM    2  C   UNL     1       9.233  -1.452  22.318  1.00  0.00     0.106 A 
HETATM    3  S   UNL     1       7.197  -0.744  21.393  1.00  0.00    -0.042 SA
HETATM    4  C   UNL     1       7.916  -1.956  22.330  1.00  0.00     0.057 A 
HETATM    5  C   UNL     1       8.835  -0.272  21.504  1.00  0.00     0.241 A 
ENDROOT
BRANCH   2   6
HETATM    6  N   UNL     1      10.328  -1.893  22.873  1.00  0.00    -0.369 N 
ATOM      7  HN  UNL     1      10.855  -2.684  22.503  1.00  0.00     0.161 HD
BRANCH   6   8
HETATM    8  C   UNL     1      10.727  -1.176  24.041  1.00  0.00     0.240 C 
BRANCH   8   9
HETATM    9  N   UNL     1      11.735  -0.184  23.814  1.00  0.00    -0.406 N 
HETATM   10  C   UNL     1      11.384   1.194  24.017  1.00  0.00     0.144 C 
HETATM   11  C   UNL     1      13.128  -0.441  24.044  1.00  0.00     0.144 C 
ENDBRANCH   8   9
ENDBRANCH   6   8
ENDBRANCH   2   6
BRANCH   4  12
HETATM   12  C   UNL     1       7.414  -3.031  23.026  1.00  0.00     0.027 C 
HETATM   13  C   UNL     1       7.393  -4.315  22.323  1.00  0.00     0.063 C 
HETATM   14 CL   UNL     1       6.863  -2.809  24.599  1.00  0.00    -0.088 Cl
ENDBRANCH   4  12
TORSDOF 4
ENDMDL
MODEL 4
REMARK VINA RESULT:    -4.110      2.666      2.979
REMARK INTER + INTRA:          -5.331
REMARK INTER:                  -4.992
REMARK INTRA:                  -0.339
REMARK UNBOUND:                -0.261
REMARK  4 active torsions:
REMARK  status: ('A' for Active; 'I' for Inactive)
REMARK    1  A    between atoms: N_1  and  C_7 
REMARK    2  A    between atoms: N_1  and  C_6 
REMARK    3  A    between atoms: C_5  and  C_9 
REMARK    4  A    between atoms: C_7  and  N_14 
ROOT
HETATM    1  O   UNL     1      12.650  -1.923  22.522  1.00  0.00    -0.278 OA
HETATM    2  C   UNL     1      10.353  -1.627  23.497  1.00  0.00     0.106 A 
HETATM    3  S   UNL     1      11.907   0.017  24.120  1.00  0.00    -0.042 SA
HETATM    4  C   UNL     1      10.307  -0.491  24.333  1.00  0.00     0.057 A 
HETATM    5  C   UNL     1      11.787  -1.399  23.172  1.00  0.00     0.241 A 
ENDROOT
BRANCH   2   6
HETATM    6  N   UNL     1       9.446  -2.516  23.204  1.00  0.00    -0.369 N 
ATOM      7  HN  UNL     1       9.474  -3.472  23.560  1.00  0.00     0.161 HD
BRANCH   6   8
HETATM    8  C   UNL     1       8.411  -2.041  22.344  1.00  0.00     0.240 C 
BRANCH   8   9
HETATM    9  N   UNL     1       7.096  -2.487  22.695  1.00  0.00    -0.406 N 
HETATM   10  C   UNL     1       6.485  -1.931  23.871  1.00  0.00     0.144 C 
HETATM   11  C   UNL     1       6.134  -2.887  21.709  1.00  0.00     0.144 C 
ENDBRANCH   8   9
ENDBRANCH   6   8
ENDBRANCH   2   6
BRANCH   4  12
HETATM   12  C   UNL     1       9.284  -0.066  25.149  1.00  0.00     0.027 C 
HETATM   13  C   UNL     1       8.584   1.154  24.741  1.00  0.00     0.063 C 
HETATM   14 CL   UNL     1       8.915  -0.947  26.532  1.00  0.00    -0.088 Cl
ENDBRANCH   4  12
TORSDOF 4
ENDMDL
MODEL 5
REMARK VINA RESULT:    -4.008      2.958      4.824
REMARK INTER + INTRA:          -5.205
REMARK INTER:                  -4.808
REMARK INTRA:                  -0.398
REMARK UNBOUND:                -0.261
REMARK  4 active torsions:
REMARK  status: ('A' for Active; 'I' for Inactive)
REMARK    1  A    between atoms: N_1  and  C_7 
REMARK    2  A    between atoms: N_1  and  C_6 
REMARK    3  A    between atoms: C_5  and  C_9 
REMARK    4  A    between atoms: C_7  and  N_14 
ROOT
HETATM    1  O   UNL     1       6.743  -0.223  23.267  1.00  0.00    -0.278 OA
HETATM    2  C   UNL     1       7.975  -2.359  22.783  1.00  0.00     0.106 A 
HETATM    3  S   UNL     1       5.933  -2.633  23.906  1.00  0.00    -0.042 SA
HETATM    4  C   UNL     1       7.266  -3.471  23.284  1.00  0.00     0.057 A 
HETATM    5  C   UNL     1       6.935  -1.409  23.261  1.00  0.00     0.241 A 
ENDROOT
BRANCH   2   6
HETATM    6  N   UNL     1       9.126  -2.275  22.175  1.00  0.00    -0.369 N 
ATOM      7  HN  UNL     1       9.241  -2.468  21.181  1.00  0.00     0.161 HD
BRANCH   6   8
HETATM    8  C   UNL     1      10.210  -1.890  23.018  1.00  0.00     0.240 C 
BRANCH   8   9
HETATM    9  N   UNL     1      10.538  -0.496  22.965  1.00  0.00    -0.406 N 
HETATM   10  C   UNL     1      11.664  -0.038  23.731  1.00  0.00     0.144 C 
HETATM   11  C   UNL     1      10.302   0.302  21.796  1.00  0.00     0.144 C 
ENDBRANCH   8   9
ENDBRANCH   6   8
ENDBRANCH   2   6
BRANCH   4  12
HETATM   12  C   UNL     1       7.662  -4.787  23.342  1.00  0.00     0.027 C 
HETATM   13  C   UNL     1       8.407  -5.195  24.535  1.00  0.00     0.063 C 
HETATM   14 CL   UNL     1       7.282  -5.817  22.069  1.00  0.00    -0.088 Cl
ENDBRANCH   4  12
TORSDOF 4
ENDMDL
MODEL 6
REMARK VINA RESULT:    -3.893      3.119      3.591
REMARK INTER + INTRA:          -5.065
REMARK INTER:                  -4.713
REMARK INTRA:                  -0.352
REMARK UNBOUND:                -0.261
REMARK  4 active torsions:
REMARK  status: ('A' for Active; 'I' for Inactive)
REMARK    1  A    between atoms: N_1  and  C_7 
REMARK    2  A    between atoms: N_1  and  C_6 
REMARK    3  A    between atoms: C_5  and  C_9 
REMARK    4  A    between atoms: C_7  and  N_14 
ROOT
HETATM    1  O   UNL     1      13.064  -0.034  24.464  1.00  0.00    -0.278 OA
HETATM    2  C   UNL     1      10.556  -0.182  24.456  1.00  0.00     0.106 A 
HETATM    3  S   UNL     1      11.419   1.935  23.931  1.00  0.00    -0.042 SA
HETATM    4  C   UNL     1       9.981   1.069  24.150  1.00  0.00     0.057 A 
HETATM    5  C   UNL     1      11.936   0.360  24.340  1.00  0.00     0.241 A 
ENDROOT
BRANCH   2   6
HETATM    6  N   UNL     1      10.011  -1.329  24.756  1.00  0.00    -0.369 N 
ATOM      7  HN  UNL     1       9.800  -1.606  25.714  1.00  0.00     0.161 HD
BRANCH   6   8
HETATM    8  C   UNL     1       9.736  -2.162  23.631  1.00  0.00     0.240 C 
BRANCH   8   9
HETATM    9  N   UNL     1       8.484  -2.855  23.698  1.00  0.00    -0.406 N 
HETATM   10  C   UNL     1       7.704  -2.958  22.496  1.00  0.00     0.144 C 
HETATM   11  C   UNL     1       8.262  -3.951  24.598  1.00  0.00     0.144 C 
ENDBRANCH   8   9
ENDBRANCH   6   8
ENDBRANCH   2   6
BRANCH   4  12
HETATM   12  C   UNL     1       8.656   1.435  24.177  1.00  0.00     0.027 C 
HETATM   13  C   UNL     1       8.274   2.441  25.171  1.00  0.00     0.063 C 
HETATM   14 CL   UNL     1       7.582   0.720  23.099  1.00  0.00    -0.088 Cl
ENDBRANCH   4  12
TORSDOF 4
ENDMDL
MODEL 7
REMARK VINA RESULT:    -3.878      3.277      5.011
REMARK INTER + INTRA:          -5.045
REMARK INTER:                  -4.648
REMARK INTRA:                  -0.397
REMARK UNBOUND:                -0.261
REMARK  4 active torsions:
REMARK  status: ('A' for Active; 'I' for Inactive)
REMARK    1  A    between atoms: N_1  and  C_7 
REMARK    2  A    between atoms: N_1  and  C_6 
REMARK    3  A    between atoms: C_5  and  C_9 
REMARK    4  A    between atoms: C_7  and  N_14 
ROOT
HETATM    1  O   UNL     1      10.060  -1.177  24.980  1.00  0.00    -0.278 OA
HETATM    2  C   UNL     1       8.911  -2.143  22.965  1.00  0.00     0.106 A 
HETATM    3  S   UNL     1       8.021  -2.822  25.027  1.00  0.00    -0.042 SA
HETATM    4  C   UNL     1       7.866  -3.009  23.352  1.00  0.00     0.057 A 
HETATM    5  C   UNL     1       9.255  -1.835  24.379  1.00  0.00     0.241 A 
ENDROOT
BRANCH   2   6
HETATM    6  N   UNL     1       9.367  -1.819  21.788  1.00  0.00    -0.369 N 
ATOM      7  HN  UNL     1      10.117  -2.333  21.325  1.00  0.00     0.161 HD
BRANCH   6   8
HETATM    8  C   UNL     1       8.730  -0.686  21.200  1.00  0.00     0.240 C 
BRANCH   8   9
HETATM    9  N   UNL     1       9.090   0.570  21.789  1.00  0.00    -0.406 N 
HETATM   10  C   UNL     1      10.483   0.921  21.830  1.00  0.00     0.144 C 
HETATM   11  C   UNL     1       8.231   1.717  21.731  1.00  0.00     0.144 C 
ENDBRANCH   8   9
ENDBRANCH   6   8
ENDBRANCH   2   6
BRANCH   4  12
HETATM   12  C   UNL     1       7.093  -3.829  22.563  1.00  0.00     0.027 C 
HETATM   13  C   UNL     1       7.440  -5.252  22.560  1.00  0.00     0.063 C 
HETATM   14 CL   UNL     1       5.834  -3.163  21.670  1.00  0.00    -0.088 Cl
ENDBRANCH   4  12
TORSDOF 4
ENDMDL
MODEL 8
REMARK VINA RESULT:    -3.854      5.894      6.848
REMARK INTER + INTRA:          -5.015
REMARK INTER:                  -4.593
REMARK INTRA:                  -0.423
REMARK UNBOUND:                -0.261
REMARK  4 active torsions:
REMARK  status: ('A' for Active; 'I' for Inactive)
REMARK    1  A    between atoms: N_1  and  C_7 
REMARK    2  A    between atoms: N_1  and  C_6 
REMARK    3  A    between atoms: C_5  and  C_9 
REMARK    4  A    between atoms: C_7  and  N_14 
ROOT
HETATM    1  O   UNL     1       7.358  -5.477  27.984  1.00  0.00    -0.278 OA
HETATM    2  C   UNL     1       6.187  -5.381  25.763  1.00  0.00     0.106 A 
HETATM    3  S   UNL     1       8.491  -4.945  25.681  1.00  0.00    -0.042 SA
HETATM    4  C   UNL     1       7.092  -5.046  24.734  1.00  0.00     0.057 A 
HETATM    5  C   UNL     1       7.256  -5.332  26.796  1.00  0.00     0.241 A 
ENDROOT
BRANCH   2   6
HETATM    6  N   UNL     1       4.901  -5.597  25.741  1.00  0.00    -0.369 N 
ATOM      7  HN  UNL     1       4.214  -4.861  25.903  1.00  0.00     0.161 HD
BRANCH   6   8
HETATM    8  C   UNL     1       4.536  -6.950  25.473  1.00  0.00     0.240 C 
BRANCH   8   9
HETATM    9  N   UNL     1       3.651  -7.117  24.359  1.00  0.00    -0.406 N 
HETATM   10  C   UNL     1       2.541  -8.016  24.507  1.00  0.00     0.144 C 
HETATM   11  C   UNL     1       3.387  -6.059  23.426  1.00  0.00     0.144 C 
ENDBRANCH   8   9
ENDBRANCH   6   8
ENDBRANCH   2   6
BRANCH   4  12
HETATM   12  C   UNL     1       6.825  -4.765  23.414  1.00  0.00     0.027 C 
HETATM   13  C   UNL     1       7.188  -5.796  22.439  1.00  0.00     0.063 C 
HETATM   14 CL   UNL     1       6.124  -3.291  23.011  1.00  0.00    -0.088 Cl
ENDBRANCH   4  12
TORSDOF 4
ENDMDL
MODEL 9
REMARK VINA RESULT:    -3.669      3.543      4.221
REMARK INTER + INTRA:          -4.787
REMARK INTER:                  -4.370
REMARK INTRA:                  -0.417
REMARK UNBOUND:                -0.261
REMARK  4 active torsions:
REMARK  status: ('A' for Active; 'I' for Inactive)
REMARK    1  A    between atoms: N_1  and  C_7 
REMARK    2  A    between atoms: N_1  and  C_6 
REMARK    3  A    between atoms: C_5  and  C_9 
REMARK    4  A    between atoms: C_7  and  N_14 
ROOT
HETATM    1  O   UNL     1      10.533   1.759  21.482  1.00  0.00    -0.278 OA
HETATM    2  C   UNL     1       9.873   1.650  23.904  1.00  0.00     0.106 A 
HETATM    3  S   UNL     1       8.310   2.699  22.504  1.00  0.00    -0.042 SA
HETATM    4  C   UNL     1       8.623   2.272  24.111  1.00  0.00     0.057 A 
HETATM    5  C   UNL     1       9.835   1.934  22.444  1.00  0.00     0.241 A 
ENDROOT
BRANCH   2   6
HETATM    6  N   UNL     1      10.706   1.094  24.739  1.00  0.00    -0.369 N 
ATOM      7  HN  UNL     1      11.053   1.569  25.572  1.00  0.00     0.161 HD
BRANCH   6   8
HETATM    8  C   UNL     1      11.090  -0.235  24.390  1.00  0.00     0.240 C 
BRANCH   8   9
HETATM    9  N   UNL     1       9.997  -1.111  24.091  1.00  0.00    -0.406 N 
HETATM   10  C   UNL     1      10.079  -1.913  22.902  1.00  0.00     0.144 C 
HETATM   11  C   UNL     1       9.203  -1.723  25.118  1.00  0.00     0.144 C 
ENDBRANCH   8   9
ENDBRANCH   6   8
ENDBRANCH   2   6
BRANCH   4  12
HETATM   12  C   UNL     1       7.983   2.539  25.299  1.00  0.00     0.027 C 
HETATM   13  C   UNL     1       7.870   3.948  25.680  1.00  0.00     0.063 C 
HETATM   14 CL   UNL     1       7.391   1.263  26.219  1.00  0.00    -0.088 Cl
ENDBRANCH   4  12
TORSDOF 4
ENDMDL
