REMARK  4 active torsions:
REMARK  status: ('A' for Active; 'I' for Inactive)
REMARK    1  A    between atoms: N_1  and  C_7 
REMARK    2  A    between atoms: N_1  and  C_6 
REMARK    3  A    between atoms: C_5  and  C_9 
REMARK    4  A    between atoms: C_7  and  N_14 
ROOT
HETATM    1  O   UNL     1       9.929   1.056  22.811  1.00  0.00    -0.278 OA
HETATM    2  C   UNL     1       8.036  -0.575  23.076  1.00  0.00     0.106 A 
HETATM    3  S   UNL     1       8.234   0.994  24.809  1.00  0.00    -0.042 SA
HETATM    4  C   UNL     1       7.336  -0.339  24.278  1.00  0.00     0.057 A 
HETATM    5  C   UNL     1       8.975   0.549  23.336  1.00  0.00     0.241 A 
ENDROOT
BRANCH   2   6
HETATM    6  N   UNL     1       7.881  -1.485  22.155  1.00  0.00    -0.369 N 
ATOM      7  HN  UNL     1       7.217  -2.254  22.244  1.00  0.00     0.161 HD
BRANCH   6   8
HETATM    8  C   UNL     1       8.718  -1.315  21.012  1.00  0.00     0.240 C 
BRANCH   8   9
HETATM    9  N   UNL     1      10.104  -1.117  21.315  1.00  0.00    -0.406 N 
HETATM   10  C   UNL     1      10.685  -1.907  22.365  1.00  0.00     0.144 C 
HETATM   11  C   UNL     1      11.060  -0.736  20.315  1.00  0.00     0.144 C 
ENDBRANCH   8   9
ENDBRANCH   6   8
ENDBRANCH   2   6
BRANCH   4  12
HETATM   12  C   UNL     1       6.333  -1.087  24.849  1.00  0.00     0.027 C 
HETATM   13  C   UNL     1       5.861  -2.243  24.084  1.00  0.00     0.063 C 
HETATM   14 CL   UNL     1       5.722  -0.636  26.349  1.00  0.00    -0.088 Cl
ENDBRANCH   4  12
TORSDOF 4
