MODEL 1
REMARK VINA RESULT:    -6.566      0.000      0.000
REMARK INTER + INTRA:         -11.106
REMARK INTER:                  -9.637
REMARK INTRA:                  -1.469
REMARK UNBOUND:                -1.469
REMARK  8 active torsions:
REMARK  status: ('A' for Active; 'I' for Inactive)
REMARK    1  A    between atoms: S_2  and  N_5 
REMARK    2  A    between atoms: N_5  and  C_7 
REMARK    3  A    between atoms: C_9  and  C_10 
REMARK    4  A    between atoms: C_10  and  C_11 
REMARK    5  A    between atoms: C_11  and  C_12 
REMARK    6  A    between atoms: C_12  and  C_13 
REMARK    7  A    between atoms: C_15  and  C_16 
REMARK       I    between atoms: C_16  and  N_18 
REMARK    8  A    between atoms: N_18  and  C_20 
ROOT
HETATM    1  C   UNL     1      23.974  -4.125  24.409  1.00  0.00     0.108 C 
HETATM    2  C   UNL     1      24.004  -3.101  23.664  1.00  0.00    -0.017 A 
HETATM    3  C   UNL     1      24.269  -1.870  23.519  1.00  0.00     0.082 A 
HETATM    4  C   UNL     1      23.863  -1.909  22.409  1.00  0.00     0.031 A 
ENDROOT
BRANCH   4   5
HETATM    5  C   UNL     1      23.317  -1.813  21.146  1.00  0.00     0.253 C 
HETATM    6  O   UNL     1      22.169  -1.905  21.036  1.00  0.00    -0.268 OA
HETATM    7  N   UNL     1      24.244  -1.627  20.242  1.00  0.00    -0.321 N 
ATOM      8  HN  UNL     1      25.222  -1.564  20.526  1.00  0.00     0.169 HD
BRANCH   7   9
HETATM    9  C   UNL     1      23.936  -1.523  19.012  1.00  0.00     0.056 A 
HETATM   10  C   UNL     1      23.523  -0.543  18.286  1.00  0.00     0.117 A 
HETATM   11  N   UNL     1      23.152  -0.117  17.169  1.00  0.00    -0.373 N 
HETATM   12  C   UNL     1      23.253  -1.232  16.456  1.00  0.00     0.088 A 
ATOM     13  HN  UNL     1      22.856   0.818  16.888  1.00  0.00     0.164 HD
HETATM   14  C   UNL     1      23.627  -2.329  16.810  1.00  0.00     0.026 A 
HETATM   15  C   UNL     1      24.038  -2.732  18.056  1.00  0.00    -0.033 A 
HETATM   16  C   UNL     1      24.502  -4.124  18.506  1.00  0.00     0.050 C 
ENDBRANCH   7   9
ENDBRANCH   4   5
BRANCH   3  17
HETATM   17  C   UNL     1      23.897  -0.585  24.430  1.00  0.00    -0.016 C 
BRANCH  17  18
HETATM   18  C   UNL     1      22.871  -0.045  24.283  1.00  0.00    -0.026 C 
BRANCH  18  19
HETATM   19  C   UNL     1      21.835   0.149  24.911  1.00  0.00     0.053 C 
BRANCH  19  20
HETATM   20  C   UNL     1      20.693  -0.883  24.427  1.00  0.00    -0.033 C 
HETATM   21  C   UNL     1      20.583  -1.772  24.704  1.00  0.00     0.007 C 
ENDBRANCH  19  20
ENDBRANCH  18  19
ENDBRANCH  17  18
ENDBRANCH   3  17
BRANCH   1  22
HETATM   22  N   UNL     1      23.475  -5.152  24.846  1.00  0.00    -0.295 N 
ATOM     23  HN  UNL     1      22.482  -5.138  25.078  1.00  0.00     0.177 HD
BRANCH  22  24
HETATM   24  S   UNL     1      24.293  -6.543  25.080  1.00  0.00     0.226 S 
HETATM   25  C   UNL     1      25.989  -6.033  25.028  1.00  0.00     0.186 C 
HETATM   26  O   UNL     1      24.063  -7.091  26.382  1.00  0.00    -0.206 OA
HETATM   27  O   UNL     1      24.063  -7.517  24.075  1.00  0.00    -0.206 OA
ENDBRANCH  22  24
ENDBRANCH   1  22
TORSDOF 8
ENDMDL
MODEL 2
REMARK VINA RESULT:    -6.386     14.281     17.511
REMARK INTER + INTRA:         -10.841
REMARK INTER:                  -9.746
REMARK INTRA:                  -1.096
REMARK UNBOUND:                -1.469
REMARK  8 active torsions:
REMARK  status: ('A' for Active; 'I' for Inactive)
REMARK    1  A    between atoms: S_2  and  N_5 
REMARK    2  A    between atoms: N_5  and  C_7 
REMARK    3  A    between atoms: C_9  and  C_10 
REMARK    4  A    between atoms: C_10  and  C_11 
REMARK    5  A    between atoms: C_11  and  C_12 
REMARK    6  A    between atoms: C_12  and  C_13 
REMARK    7  A    between atoms: C_15  and  C_16 
REMARK       I    between atoms: C_16  and  N_18 
REMARK    8  A    between atoms: N_18  and  C_20 
ROOT
HETATM    1  C   UNL     1       6.781  -0.670  21.380  1.00  0.00     0.108 C 
HETATM    2  C   UNL     1       7.481  -1.306  22.222  1.00  0.00    -0.017 A 
HETATM    3  C   UNL     1       8.589  -1.460  22.820  1.00  0.00     0.082 A 
HETATM    4  C   UNL     1       8.159  -2.407  23.382  1.00  0.00     0.031 A 
ENDROOT
BRANCH   4   5
HETATM    5  C   UNL     1       7.799  -3.582  24.009  1.00  0.00     0.253 C 
HETATM    6  O   UNL     1       7.913  -4.573  23.423  1.00  0.00    -0.268 OA
HETATM    7  N   UNL     1       7.367  -3.359  25.223  1.00  0.00    -0.321 N 
ATOM      8  HN  UNL     1       7.340  -2.405  25.583  1.00  0.00     0.169 HD
BRANCH   7   9
HETATM    9  C   UNL     1       6.978  -4.322  25.958  1.00  0.00     0.056 A 
HETATM   10  C   UNL     1       7.577  -5.074  26.815  1.00  0.00     0.117 A 
HETATM   11  N   UNL     1       7.527  -6.021  27.631  1.00  0.00    -0.373 N 
HETATM   12  C   UNL     1       6.248  -6.358  27.509  1.00  0.00     0.088 A 
ATOM     13  HN  UNL     1       8.257  -6.420  28.221  1.00  0.00     0.164 HD
HETATM   14  C   UNL     1       5.393  -5.853  26.816  1.00  0.00     0.026 A 
HETATM   15  C   UNL     1       5.509  -4.799  25.945  1.00  0.00    -0.033 A 
HETATM   16  C   UNL     1       4.428  -4.167  25.058  1.00  0.00     0.050 C 
ENDBRANCH   7   9
ENDBRANCH   4   5
BRANCH   3  17
HETATM   17  C   UNL     1      10.104  -1.523  22.255  1.00  0.00    -0.016 C 
BRANCH  17  18
HETATM   18  C   UNL     1      10.994  -1.689  22.994  1.00  0.00    -0.026 C 
BRANCH  18  19
HETATM   19  C   UNL     1      12.039  -1.131  23.316  1.00  0.00     0.053 C 
BRANCH  19  20
HETATM   20  C   UNL     1      11.714   0.214  24.145  1.00  0.00    -0.033 C 
HETATM   21  C   UNL     1      11.271   0.275  24.970  1.00  0.00     0.007 C 
ENDBRANCH  19  20
ENDBRANCH  18  19
ENDBRANCH  17  18
ENDBRANCH   3  17
BRANCH   1  22
HETATM   22  N   UNL     1       5.963  -0.580  20.477  1.00  0.00    -0.295 N 
ATOM     23  HN  UNL     1       4.996  -0.833  20.682  1.00  0.00     0.177 HD
BRANCH  22  24
HETATM   24  S   UNL     1       6.316  -0.082  18.965  1.00  0.00     0.226 S 
HETATM   25  C   UNL     1       5.342   1.386  18.780  1.00  0.00     0.186 C 
HETATM   26  O   UNL     1       7.686   0.309  18.832  1.00  0.00    -0.206 OA
HETATM   27  O   UNL     1       5.957  -1.015  17.958  1.00  0.00    -0.206 OA
ENDBRANCH  22  24
ENDBRANCH   1  22
TORSDOF 8
ENDMDL
MODEL 3
REMARK VINA RESULT:    -6.067     14.824     17.736
REMARK INTER + INTRA:         -10.374
REMARK INTER:                  -9.410
REMARK INTRA:                  -0.964
REMARK UNBOUND:                -1.469
REMARK  8 active torsions:
REMARK  status: ('A' for Active; 'I' for Inactive)
REMARK    1  A    between atoms: S_2  and  N_5 
REMARK    2  A    between atoms: N_5  and  C_7 
REMARK    3  A    between atoms: C_9  and  C_10 
REMARK    4  A    between atoms: C_10  and  C_11 
REMARK    5  A    between atoms: C_11  and  C_12 
REMARK    6  A    between atoms: C_12  and  C_13 
REMARK    7  A    between atoms: C_15  and  C_16 
REMARK       I    between atoms: C_16  and  N_18 
REMARK    8  A    between atoms: N_18  and  C_20 
ROOT
HETATM    1  C   UNL     1       7.018  -0.139  22.332  1.00  0.00     0.108 C 
HETATM    2  C   UNL     1       7.495  -1.199  22.834  1.00  0.00    -0.017 A 
HETATM    3  C   UNL     1       8.482  -1.813  23.340  1.00  0.00     0.082 A 
HETATM    4  C   UNL     1       7.834  -2.799  23.418  1.00  0.00     0.031 A 
ENDROOT
BRANCH   4   5
HETATM    5  C   UNL     1       7.208  -4.027  23.457  1.00  0.00     0.253 C 
HETATM    6  O   UNL     1       7.772  -4.944  23.032  1.00  0.00    -0.268 OA
HETATM    7  N   UNL     1       6.020  -3.938  23.997  1.00  0.00    -0.321 N 
ATOM      8  HN  UNL     1       5.682  -3.035  24.328  1.00  0.00     0.169 HD
BRANCH   7   9
HETATM    9  C   UNL     1       5.283  -4.969  24.113  1.00  0.00     0.056 A 
HETATM   10  C   UNL     1       4.377  -5.494  23.363  1.00  0.00     0.117 A 
HETATM   11  N   UNL     1       3.530  -6.396  23.175  1.00  0.00    -0.373 N 
HETATM   12  C   UNL     1       3.689  -7.093  24.293  1.00  0.00     0.088 A 
ATOM     13  HN  UNL     1       2.899  -6.551  22.389  1.00  0.00     0.164 HD
HETATM   14  C   UNL     1       4.463  -6.900  25.205  1.00  0.00     0.026 A 
HETATM   15  C   UNL     1       5.384  -5.892  25.347  1.00  0.00    -0.033 A 
HETATM   16  C   UNL     1       6.357  -5.642  26.507  1.00  0.00     0.050 C 
ENDBRANCH   7   9
ENDBRANCH   4   5
BRANCH   3  17
HETATM   17  C   UNL     1      10.020  -1.941  22.854  1.00  0.00    -0.016 C 
BRANCH  17  18
HETATM   18  C   UNL     1      10.835  -1.238  23.311  1.00  0.00    -0.026 C 
BRANCH  18  19
HETATM   19  C   UNL     1      11.017  -0.584  24.333  1.00  0.00     0.053 C 
BRANCH  19  20
HETATM   20  C   UNL     1      12.557  -0.108  24.417  1.00  0.00    -0.033 C 
HETATM   21  C   UNL     1      13.312  -0.589  24.136  1.00  0.00     0.007 C 
ENDBRANCH  19  20
ENDBRANCH  18  19
ENDBRANCH  17  18
ENDBRANCH   3  17
BRANCH   1  22
HETATM   22  N   UNL     1       6.339   0.489  21.532  1.00  0.00    -0.295 N 
ATOM     23  HN  UNL     1       5.751   1.240  21.892  1.00  0.00     0.177 HD
BRANCH  22  24
HETATM   24  S   UNL     1       6.313   0.203  19.927  1.00  0.00     0.226 S 
HETATM   25  C   UNL     1       5.229   1.458  19.305  1.00  0.00     0.186 C 
HETATM   26  O   UNL     1       7.591   0.419  19.320  1.00  0.00    -0.206 OA
HETATM   27  O   UNL     1       5.802  -1.075  19.583  1.00  0.00    -0.206 OA
ENDBRANCH  22  24
ENDBRANCH   1  22
TORSDOF 8
ENDMDL
MODEL 4
REMARK VINA RESULT:    -5.840     14.172     16.602
REMARK INTER + INTRA:         -10.040
REMARK INTER:                  -8.595
REMARK INTRA:                  -1.445
REMARK UNBOUND:                -1.469
REMARK  8 active torsions:
REMARK  status: ('A' for Active; 'I' for Inactive)
REMARK    1  A    between atoms: S_2  and  N_5 
REMARK    2  A    between atoms: N_5  and  C_7 
REMARK    3  A    between atoms: C_9  and  C_10 
REMARK    4  A    between atoms: C_10  and  C_11 
REMARK    5  A    between atoms: C_11  and  C_12 
REMARK    6  A    between atoms: C_12  and  C_13 
REMARK    7  A    between atoms: C_15  and  C_16 
REMARK       I    between atoms: C_16  and  N_18 
REMARK    8  A    between atoms: N_18  and  C_20 
ROOT
HETATM    1  C   UNL     1       9.288   0.578  21.430  1.00  0.00     0.108 C 
HETATM    2  C   UNL     1       9.808   1.441  22.198  1.00  0.00    -0.017 A 
HETATM    3  C   UNL     1      10.810   1.840  22.864  1.00  0.00     0.082 A 
HETATM    4  C   UNL     1      10.183   2.758  23.266  1.00  0.00     0.031 A 
ENDROOT
BRANCH   4   5
HETATM    5  C   UNL     1       9.518   3.800  23.878  1.00  0.00     0.253 C 
HETATM    6  O   UNL     1       8.837   3.560  24.782  1.00  0.00    -0.268 OA
HETATM    7  N   UNL     1       9.786   4.941  23.298  1.00  0.00    -0.321 N 
ATOM      8  HN  UNL     1      10.425   4.966  22.503  1.00  0.00     0.169 HD
BRANCH   7   9
HETATM    9  C   UNL     1       9.258   6.020  23.716  1.00  0.00     0.056 A 
HETATM   10  C   UNL     1       9.596   6.877  24.615  1.00  0.00     0.117 A 
HETATM   11  N   UNL     1       9.348   7.933  25.238  1.00  0.00    -0.373 N 
HETATM   12  C   UNL     1       8.202   8.273  24.661  1.00  0.00     0.088 A 
ATOM     13  HN  UNL     1       9.874   8.400  25.977  1.00  0.00     0.164 HD
HETATM   14  C   UNL     1       7.606   7.711  23.768  1.00  0.00     0.026 A 
HETATM   15  C   UNL     1       7.940   6.553  23.111  1.00  0.00    -0.033 A 
HETATM   16  C   UNL     1       7.179   5.836  21.988  1.00  0.00     0.050 C 
ENDBRANCH   7   9
ENDBRANCH   4   5
BRANCH   3  17
HETATM   17  C   UNL     1      11.781   1.060  23.898  1.00  0.00    -0.016 C 
BRANCH  17  18
HETATM   18  C   UNL     1      11.356   0.190  24.552  1.00  0.00    -0.026 C 
BRANCH  18  19
HETATM   19  C   UNL     1      10.466   0.009  25.377  1.00  0.00     0.053 C 
BRANCH  19  20
HETATM   20  C   UNL     1       9.475  -1.161  24.873  1.00  0.00    -0.033 C 
HETATM   21  C   UNL     1       8.547  -1.099  24.746  1.00  0.00     0.007 C 
ENDBRANCH  19  20
ENDBRANCH  18  19
ENDBRANCH  17  18
ENDBRANCH   3  17
BRANCH   1  22
HETATM   22  N   UNL     1       8.377  -0.135  21.037  1.00  0.00    -0.295 N 
ATOM     23  HN  UNL     1       8.378  -1.114  21.326  1.00  0.00     0.177 HD
BRANCH  22  24
HETATM   24  S   UNL     1       7.158   0.376  20.082  1.00  0.00     0.226 S 
HETATM   25  C   UNL     1       6.004  -0.968  20.136  1.00  0.00     0.186 C 
HETATM   26  O   UNL     1       6.490   1.519  20.626  1.00  0.00    -0.206 OA
HETATM   27  O   UNL     1       7.546   0.611  18.738  1.00  0.00    -0.206 OA
ENDBRANCH  22  24
ENDBRANCH   1  22
TORSDOF 8
ENDMDL
MODEL 5
REMARK VINA RESULT:    -5.833     14.209     16.149
REMARK INTER + INTRA:         -10.031
REMARK INTER:                  -8.880
REMARK INTRA:                  -1.151
REMARK UNBOUND:                -1.469
REMARK  8 active torsions:
REMARK  status: ('A' for Active; 'I' for Inactive)
REMARK    1  A    between atoms: S_2  and  N_5 
REMARK    2  A    between atoms: N_5  and  C_7 
REMARK    3  A    between atoms: C_9  and  C_10 
REMARK    4  A    between atoms: C_10  and  C_11 
REMARK    5  A    between atoms: C_11  and  C_12 
REMARK    6  A    between atoms: C_12  and  C_13 
REMARK    7  A    between atoms: C_15  and  C_16 
REMARK       I    between atoms: C_16  and  N_18 
REMARK    8  A    between atoms: N_18  and  C_20 
ROOT
HETATM    1  C   UNL     1       8.593  -3.570  23.825  1.00  0.00     0.108 C 
HETATM    2  C   UNL     1       9.034  -2.509  23.293  1.00  0.00    -0.017 A 
HETATM    3  C   UNL     1       9.875  -1.560  23.296  1.00  0.00     0.082 A 
HETATM    4  C   UNL     1       9.341  -1.078  22.358  1.00  0.00     0.031 A 
ENDROOT
BRANCH   4   5
HETATM    5  C   UNL     1       8.738  -0.374  21.337  1.00  0.00     0.253 C 
HETATM    6  O   UNL     1       9.363   0.421  20.774  1.00  0.00    -0.268 OA
HETATM    7  N   UNL     1       7.495  -0.747  21.173  1.00  0.00    -0.321 N 
ATOM      8  HN  UNL     1       7.105  -1.480  21.765  1.00  0.00     0.169 HD
BRANCH   7   9
HETATM    9  C   UNL     1       6.768  -0.203  20.281  1.00  0.00     0.056 A 
HETATM   10  C   UNL     1       6.423  -0.553  19.091  1.00  0.00     0.117 A 
HETATM   11  N   UNL     1       5.800  -0.299  18.036  1.00  0.00    -0.373 N 
HETATM   12  C   UNL     1       5.283   0.881  18.357  1.00  0.00     0.088 A 
ATOM     13  HN  UNL     1       5.713  -0.841  17.177  1.00  0.00     0.164 HD
HETATM   14  C   UNL     1       5.383   1.497  19.396  1.00  0.00     0.026 A 
HETATM   15  C   UNL     1       6.076   1.155  20.530  1.00  0.00    -0.033 A 
HETATM   16  C   UNL     1       6.212   1.941  21.841  1.00  0.00     0.050 C 
ENDBRANCH   7   9
ENDBRANCH   4   5
BRANCH   3  17
HETATM   17  C   UNL     1      10.372  -0.580  24.486  1.00  0.00    -0.016 C 
BRANCH  17  18
HETATM   18  C   UNL     1      10.531   0.558  24.274  1.00  0.00    -0.026 C 
BRANCH  18  19
HETATM   19  C   UNL     1      11.460   1.344  24.123  1.00  0.00     0.053 C 
BRANCH  19  20
HETATM   20  C   UNL     1      10.905   2.756  23.573  1.00  0.00    -0.033 C 
HETATM   21  C   UNL     1      10.020   2.962  23.340  1.00  0.00     0.007 C 
ENDBRANCH  19  20
ENDBRANCH  18  19
ENDBRANCH  17  18
ENDBRANCH   3  17
BRANCH   1  22
HETATM   22  N   UNL     1       7.707  -4.325  24.198  1.00  0.00    -0.295 N 
ATOM     23  HN  UNL     1       7.969  -5.274  24.463  1.00  0.00     0.177 HD
BRANCH  22  24
HETATM   24  S   UNL     1       6.132  -3.913  24.299  1.00  0.00     0.226 S 
HETATM   25  C   UNL     1       6.098  -2.753  25.638  1.00  0.00     0.186 C 
HETATM   26  O   UNL     1       5.681  -3.215  23.134  1.00  0.00    -0.206 OA
HETATM   27  O   UNL     1       5.275  -5.003  24.599  1.00  0.00    -0.206 OA
ENDBRANCH  22  24
ENDBRANCH   1  22
TORSDOF 8
ENDMDL
MODEL 6
REMARK VINA RESULT:    -5.802     27.519     29.473
REMARK INTER + INTRA:          -9.985
REMARK INTER:                  -8.318
REMARK INTRA:                  -1.667
REMARK UNBOUND:                -1.469
REMARK  8 active torsions:
REMARK  status: ('A' for Active; 'I' for Inactive)
REMARK    1  A    between atoms: S_2  and  N_5 
REMARK    2  A    between atoms: N_5  and  C_7 
REMARK    3  A    between atoms: C_9  and  C_10 
REMARK    4  A    between atoms: C_10  and  C_11 
REMARK    5  A    between atoms: C_11  and  C_12 
REMARK    6  A    between atoms: C_12  and  C_13 
REMARK    7  A    between atoms: C_15  and  C_16 
REMARK       I    between atoms: C_16  and  N_18 
REMARK    8  A    between atoms: N_18  and  C_20 
ROOT
HETATM    1  C   UNL     1       7.799  11.677   2.796  1.00  0.00     0.108 C 
HETATM    2  C   UNL     1       6.682  11.087   2.717  1.00  0.00    -0.017 A 
HETATM    3  C   UNL     1       5.535  10.996   2.183  1.00  0.00     0.082 A 
HETATM    4  C   UNL     1       5.266  10.098   2.903  1.00  0.00     0.031 A 
ENDROOT
BRANCH   4   5
HETATM    5  C   UNL     1       4.807   9.119   3.760  1.00  0.00     0.253 C 
HETATM    6  O   UNL     1       4.570   9.415   4.854  1.00  0.00    -0.268 OA
HETATM    7  N   UNL     1       4.716   7.964   3.155  1.00  0.00    -0.321 N 
ATOM      8  HN  UNL     1       4.966   7.888   2.169  1.00  0.00     0.169 HD
BRANCH   7   9
HETATM    9  C   UNL     1       4.318   6.933   3.786  1.00  0.00     0.056 A 
HETATM   10  C   UNL     1       4.924   6.042   4.492  1.00  0.00     0.117 A 
HETATM   11  N   UNL     1       4.869   4.999   5.179  1.00  0.00    -0.373 N 
HETATM   12  C   UNL     1       3.567   4.748   5.107  1.00  0.00     0.088 A 
ATOM     13  HN  UNL     1       5.611   4.487   5.658  1.00  0.00     0.164 HD
HETATM   14  C   UNL     1       2.701   5.385   4.548  1.00  0.00     0.026 A 
HETATM   15  C   UNL     1       2.825   6.539   3.816  1.00  0.00    -0.033 A 
HETATM   16  C   UNL     1       1.729   7.338   3.099  1.00  0.00     0.050 C 
ENDBRANCH   7   9
ENDBRANCH   4   5
BRANCH   3  17
HETATM   17  C   UNL     1       4.404  12.117   1.894  1.00  0.00    -0.016 C 
BRANCH  17  18
HETATM   18  C   UNL     1       4.349  13.074   2.563  1.00  0.00    -0.026 C 
BRANCH  18  19
HETATM   19  C   UNL     1       3.818  13.438   3.608  1.00  0.00     0.053 C 
BRANCH  19  20
HETATM   20  C   UNL     1       4.943  13.739   4.724  1.00  0.00    -0.033 C 
HETATM   21  C   UNL     1       5.227  13.163   5.408  1.00  0.00     0.007 C 
ENDBRANCH  19  20
ENDBRANCH  18  19
ENDBRANCH  17  18
ENDBRANCH   3  17
BRANCH   1  22
HETATM   22  N   UNL     1       8.756  12.142   3.399  1.00  0.00    -0.295 N 
ATOM     23  HN  UNL     1       9.399  11.490   3.847  1.00  0.00     0.177 HD
BRANCH  22  24
HETATM   24  S   UNL     1       9.070  13.737   3.532  1.00  0.00     0.226 S 
HETATM   25  C   UNL     1       8.112  14.453   2.225  1.00  0.00     0.186 C 
HETATM   26  O   UNL     1       8.574  14.283   4.758  1.00  0.00    -0.206 OA
HETATM   27  O   UNL     1      10.437  14.066   3.349  1.00  0.00    -0.206 OA
ENDBRANCH  22  24
ENDBRANCH   1  22
TORSDOF 8
ENDMDL
MODEL 7
REMARK VINA RESULT:    -5.788     14.525     16.828
REMARK INTER + INTRA:          -9.964
REMARK INTER:                  -8.660
REMARK INTRA:                  -1.303
REMARK UNBOUND:                -1.469
REMARK  8 active torsions:
REMARK  status: ('A' for Active; 'I' for Inactive)
REMARK    1  A    between atoms: S_2  and  N_5 
REMARK    2  A    between atoms: N_5  and  C_7 
REMARK    3  A    between atoms: C_9  and  C_10 
REMARK    4  A    between atoms: C_10  and  C_11 
REMARK    5  A    between atoms: C_11  and  C_12 
REMARK    6  A    between atoms: C_12  and  C_13 
REMARK    7  A    between atoms: C_15  and  C_16 
REMARK       I    between atoms: C_16  and  N_18 
REMARK    8  A    between atoms: N_18  and  C_20 
ROOT
HETATM    1  C   UNL     1       5.808  -5.310  23.515  1.00  0.00     0.108 C 
HETATM    2  C   UNL     1       6.950  -4.815  23.750  1.00  0.00    -0.017 A 
HETATM    3  C   UNL     1       8.091  -4.923  24.293  1.00  0.00     0.082 A 
HETATM    4  C   UNL     1       8.375  -3.838  23.921  1.00  0.00     0.031 A 
ENDROOT
BRANCH   4   5
HETATM    5  C   UNL     1       8.772  -2.548  23.633  1.00  0.00     0.253 C 
HETATM    6  O   UNL     1       8.468  -2.096  22.612  1.00  0.00    -0.268 OA
HETATM    7  N   UNL     1       9.462  -2.033  24.617  1.00  0.00    -0.321 N 
ATOM      8  HN  UNL     1       9.631  -2.583  25.459  1.00  0.00     0.169 HD
BRANCH   7   9
HETATM    9  C   UNL     1       9.925  -0.851  24.533  1.00  0.00     0.056 A 
HETATM   10  C   UNL     1       9.508   0.292  24.957  1.00  0.00     0.117 A 
HETATM   11  N   UNL     1       9.674   1.529  25.046  1.00  0.00    -0.373 N 
HETATM   12  C   UNL     1      10.815   1.653  24.380  1.00  0.00     0.088 A 
ATOM     13  HN  UNL     1       9.097   2.238  25.499  1.00  0.00     0.164 HD
HETATM   14  C   UNL     1      11.493   0.790  23.867  1.00  0.00     0.026 A 
HETATM   15  C   UNL     1      11.262  -0.562  23.816  1.00  0.00    -0.033 A 
HETATM   16  C   UNL     1      12.116  -1.654  23.157  1.00  0.00     0.050 C 
ENDBRANCH   7   9
ENDBRANCH   4   5
BRANCH   3  17
HETATM   17  C   UNL     1       8.520  -5.360  25.791  1.00  0.00    -0.016 C 
BRANCH  17  18
HETATM   18  C   UNL     1       8.029  -4.836  26.713  1.00  0.00    -0.026 C 
BRANCH  18  19
HETATM   19  C   UNL     1       6.912  -4.682  27.198  1.00  0.00     0.053 C 
BRANCH  19  20
HETATM   20  C   UNL     1       6.091  -6.070  27.145  1.00  0.00    -0.033 C 
HETATM   21  C   UNL     1       5.463  -6.377  27.771  1.00  0.00     0.007 C 
ENDBRANCH  19  20
ENDBRANCH  18  19
ENDBRANCH  17  18
ENDBRANCH   3  17
BRANCH   1  22
HETATM   22  N   UNL     1       4.594  -5.257  23.387  1.00  0.00    -0.295 N 
ATOM     23  HN  UNL     1       4.212  -4.565  22.744  1.00  0.00     0.177 HD
BRANCH  22  24
HETATM   24  S   UNL     1       3.545  -6.223  24.179  1.00  0.00     0.226 S 
HETATM   25  C   UNL     1       2.264  -6.500  22.987  1.00  0.00     0.186 C 
HETATM   26  O   UNL     1       4.113  -7.500  24.484  1.00  0.00    -0.206 OA
HETATM   27  O   UNL     1       2.987  -5.629  25.341  1.00  0.00    -0.206 OA
ENDBRANCH  22  24
ENDBRANCH   1  22
TORSDOF 8
ENDMDL
MODEL 8
REMARK VINA RESULT:    -5.742     27.599     29.762
REMARK INTER + INTRA:          -9.896
REMARK INTER:                  -8.073
REMARK INTRA:                  -1.823
REMARK UNBOUND:                -1.469
REMARK  8 active torsions:
REMARK  status: ('A' for Active; 'I' for Inactive)
REMARK    1  A    between atoms: S_2  and  N_5 
REMARK    2  A    between atoms: N_5  and  C_7 
REMARK    3  A    between atoms: C_9  and  C_10 
REMARK    4  A    between atoms: C_10  and  C_11 
REMARK    5  A    between atoms: C_11  and  C_12 
REMARK    6  A    between atoms: C_12  and  C_13 
REMARK    7  A    between atoms: C_15  and  C_16 
REMARK       I    between atoms: C_16  and  N_18 
REMARK    8  A    between atoms: N_18  and  C_20 
ROOT
HETATM    1  C   UNL     1       7.101  13.364   1.747  1.00  0.00     0.108 C 
HETATM    2  C   UNL     1       6.077  12.623   1.824  1.00  0.00    -0.017 A 
HETATM    3  C   UNL     1       4.817  12.516   1.905  1.00  0.00     0.082 A 
HETATM    4  C   UNL     1       4.917  11.340   1.974  1.00  0.00     0.031 A 
ENDROOT
BRANCH   4   5
HETATM    5  C   UNL     1       4.920   9.974   2.168  1.00  0.00     0.253 C 
HETATM    6  O   UNL     1       5.585   9.324   1.480  1.00  0.00    -0.268 OA
HETATM    7  N   UNL     1       4.127   9.632   3.150  1.00  0.00    -0.321 N 
ATOM      8  HN  UNL     1       3.614  10.352   3.659  1.00  0.00     0.169 HD
BRANCH   7   9
HETATM    9  C   UNL     1       3.989   8.410   3.476  1.00  0.00     0.056 A 
HETATM   10  C   UNL     1       3.204   7.473   3.072  1.00  0.00     0.117 A 
HETATM   11  N   UNL     1       2.817   6.286   3.157  1.00  0.00    -0.373 N 
HETATM   12  C   UNL     1       3.624   5.854   4.118  1.00  0.00     0.088 A 
ATOM     13  HN  UNL     1       2.091   5.793   2.637  1.00  0.00     0.164 HD
HETATM   14  C   UNL     1       4.495   6.456   4.707  1.00  0.00     0.026 A 
HETATM   15  C   UNL     1       4.883   7.763   4.557  1.00  0.00    -0.033 A 
HETATM   16  C   UNL     1       5.979   8.528   5.310  1.00  0.00     0.050 C 
ENDBRANCH   7   9
ENDBRANCH   4   5
BRANCH   3  17
HETATM   17  C   UNL     1       3.744  13.254   2.866  1.00  0.00    -0.016 C 
BRANCH  17  18
HETATM   18  C   UNL     1       4.070  13.624   3.925  1.00  0.00    -0.026 C 
BRANCH  18  19
HETATM   19  C   UNL     1       3.800  13.401   5.102  1.00  0.00     0.053 C 
BRANCH  19  20
HETATM   20  C   UNL     1       4.703  12.185   5.656  1.00  0.00    -0.033 C 
HETATM   21  C   UNL     1       5.637  12.171   5.745  1.00  0.00     0.007 C 
ENDBRANCH  19  20
ENDBRANCH  18  19
ENDBRANCH  17  18
ENDBRANCH   3  17
BRANCH   1  22
HETATM   22  N   UNL     1       8.250  13.682   2.018  1.00  0.00    -0.295 N 
ATOM     23  HN  UNL     1       8.861  13.961   1.251  1.00  0.00     0.177 HD
BRANCH  22  24
HETATM   24  S   UNL     1       8.868  13.689   3.528  1.00  0.00     0.226 S 
HETATM   25  C   UNL     1      10.296  14.727   3.380  1.00  0.00     0.186 C 
HETATM   26  O   UNL     1       7.990  14.320   4.466  1.00  0.00    -0.206 OA
HETATM   27  O   UNL     1       9.263  12.408   3.989  1.00  0.00    -0.206 OA
ENDBRANCH  22  24
ENDBRANCH   1  22
TORSDOF 8
ENDMDL
MODEL 9
REMARK VINA RESULT:    -5.680     27.693     30.483
REMARK INTER + INTRA:          -9.805
REMARK INTER:                  -8.688
REMARK INTRA:                  -1.117
REMARK UNBOUND:                -1.469
REMARK  8 active torsions:
REMARK  status: ('A' for Active; 'I' for Inactive)
REMARK    1  A    between atoms: S_2  and  N_5 
REMARK    2  A    between atoms: N_5  and  C_7 
REMARK    3  A    between atoms: C_9  and  C_10 
REMARK    4  A    between atoms: C_10  and  C_11 
REMARK    5  A    between atoms: C_11  and  C_12 
REMARK    6  A    between atoms: C_12  and  C_13 
REMARK    7  A    between atoms: C_15  and  C_16 
REMARK       I    between atoms: C_16  and  N_18 
REMARK    8  A    between atoms: N_18  and  C_20 
ROOT
HETATM    1  C   UNL     1       7.196  13.536   1.587  1.00  0.00     0.108 C 
HETATM    2  C   UNL     1       6.209  12.785   1.842  1.00  0.00    -0.017 A 
HETATM    3  C   UNL     1       4.984  12.665   2.145  1.00  0.00     0.082 A 
HETATM    4  C   UNL     1       5.105  11.490   2.188  1.00  0.00     0.031 A 
ENDROOT
BRANCH   4   5
HETATM    5  C   UNL     1       5.156  10.123   2.371  1.00  0.00     0.253 C 
HETATM    6  O   UNL     1       5.645   9.477   1.544  1.00  0.00    -0.268 OA
HETATM    7  N   UNL     1       4.612   9.776   3.508  1.00  0.00    -0.321 N 
ATOM      8  HN  UNL     1       4.230  10.492   4.125  1.00  0.00     0.169 HD
BRANCH   7   9
HETATM    9  C   UNL     1       4.556   8.552   3.851  1.00  0.00     0.056 A 
HETATM   10  C   UNL     1       5.317   7.801   4.568  1.00  0.00     0.117 A 
HETATM   11  N   UNL     1       5.558   6.676   5.060  1.00  0.00    -0.373 N 
HETATM   12  C   UNL     1       4.520   5.996   4.591  1.00  0.00     0.088 A 
ATOM     13  HN  UNL     1       6.331   6.370   5.652  1.00  0.00     0.164 HD
HETATM   14  C   UNL     1       3.602   6.389   3.905  1.00  0.00     0.026 A 
HETATM   15  C   UNL     1       3.385   7.648   3.405  1.00  0.00    -0.033 A 
HETATM   16  C   UNL     1       2.227   8.142   2.528  1.00  0.00     0.050 C 
ENDBRANCH   7   9
ENDBRANCH   4   5
BRANCH   3  17
HETATM   17  C   UNL     1       4.094  13.388   3.287  1.00  0.00    -0.016 C 
BRANCH  17  18
HETATM   18  C   UNL     1       2.930  13.288   3.267  1.00  0.00    -0.026 C 
BRANCH  18  19
HETATM   19  C   UNL     1       1.941  13.999   3.422  1.00  0.00     0.053 C 
BRANCH  19  20
HETATM   20  C   UNL     1       1.200  14.229   2.008  1.00  0.00    -0.033 C 
HETATM   21  C   UNL     1       1.120  13.612   1.305  1.00  0.00     0.007 C 
ENDBRANCH  19  20
ENDBRANCH  18  19
ENDBRANCH  17  18
ENDBRANCH   3  17
BRANCH   1  22
HETATM   22  N   UNL     1       8.372  13.865   1.651  1.00  0.00    -0.295 N 
ATOM     23  HN  UNL     1       8.885  13.974   0.776  1.00  0.00     0.177 HD
BRANCH  22  24
HETATM   24  S   UNL     1       9.173  14.141   3.045  1.00  0.00     0.226 S 
HETATM   25  C   UNL     1       8.035  15.121   3.984  1.00  0.00     0.186 C 
HETATM   26  O   UNL     1       9.395  12.937   3.786  1.00  0.00    -0.206 OA
HETATM   27  O   UNL     1      10.384  14.859   2.874  1.00  0.00    -0.206 OA
ENDBRANCH  22  24
ENDBRANCH   1  22
TORSDOF 8
ENDMDL
