REMARK  8 active torsions:
REMARK  status: ('A' for Active; 'I' for Inactive)
REMARK    1  A    between atoms: S_2  and  N_5 
REMARK    2  A    between atoms: N_5  and  C_7 
REMARK    3  A    between atoms: C_9  and  C_10 
REMARK    4  A    between atoms: C_10  and  C_11 
REMARK    5  A    between atoms: C_11  and  C_12 
REMARK    6  A    between atoms: C_12  and  C_13 
REMARK    7  A    between atoms: C_15  and  C_16 
REMARK       I    between atoms: C_16  and  N_18 
REMARK    8  A    between atoms: N_18  and  C_20 
ROOT
HETATM    1  C   UNL     1       8.977  -2.933  24.137  1.00  0.00     0.108 C 
HETATM    2  C   UNL     1       9.425  -1.952  23.473  1.00  0.00    -0.017 A 
HETATM    3  C   UNL     1      10.322  -1.072  23.305  1.00  0.00     0.082 A 
HETATM    4  C   UNL     1       9.718  -0.624  22.393  1.00  0.00     0.031 A 
ENDROOT
BRANCH   4   5
HETATM    5  C   UNL     1       9.050   0.044  21.388  1.00  0.00     0.253 C 
HETATM    6  O   UNL     1       9.520   1.015  20.968  1.00  0.00    -0.268 OA
HETATM    7  N   UNL     1       7.940  -0.568  21.067  1.00  0.00    -0.321 N 
ATOM      8  HN  UNL     1       7.682  -1.431  21.546  1.00  0.00     0.169 HD
BRANCH   7   9
HETATM    9  C   UNL     1       7.179  -0.097  20.163  1.00  0.00     0.056 A 
HETATM   10  C   UNL     1       7.269  -0.031  18.880  1.00  0.00     0.117 A 
HETATM   11  N   UNL     1       6.777   0.327  17.787  1.00  0.00    -0.373 N 
HETATM   12  C   UNL     1       5.653   0.887  18.217  1.00  0.00     0.088 A 
ATOM     13  HN  UNL     1       7.136   0.220  16.838  1.00  0.00     0.164 HD
HETATM   14  C   UNL     1       5.238   0.983  19.351  1.00  0.00     0.026 A 
HETATM   15  C   UNL     1       5.823   0.554  20.516  1.00  0.00    -0.033 A 
HETATM   16  C   UNL     1       5.302   0.686  21.953  1.00  0.00     0.050 C 
ENDBRANCH   7   9
ENDBRANCH   4   5
BRANCH   3  17
HETATM   17  C   UNL     1      11.016  -0.046  24.347  1.00  0.00    -0.016 C 
BRANCH  17  18
HETATM   18  C   UNL     1      12.136   0.256  24.207  1.00  0.00    -0.026 C 
BRANCH  18  19
HETATM   19  C   UNL     1      13.107  -0.092  23.542  1.00  0.00     0.053 C 
BRANCH  19  20
HETATM   20  C   UNL     1      12.707  -1.327  22.584  1.00  0.00    -0.033 C 
HETATM   21  C   UNL     1      11.860  -1.722  22.497  1.00  0.00     0.007 C 
ENDBRANCH  19  20
ENDBRANCH  18  19
ENDBRANCH  17  18
ENDBRANCH   3  17
BRANCH   1  22
HETATM   22  N   UNL     1       8.091  -3.588  24.666  1.00  0.00    -0.295 N 
ATOM     23  HN  UNL     1       7.215  -3.704  24.157  1.00  0.00     0.177 HD
BRANCH  22  24
HETATM   24  S   UNL     1       8.219  -4.289  26.133  1.00  0.00     0.226 S 
HETATM   25  C   UNL     1       6.576  -4.869  26.454  1.00  0.00     0.186 C 
HETATM   26  O   UNL     1       9.069  -5.440  26.108  1.00  0.00    -0.206 OA
HETATM   27  O   UNL     1       8.612  -3.394  27.161  1.00  0.00    -0.206 OA
ENDBRANCH  22  24
ENDBRANCH   1  22
TORSDOF 8
