stable:False satoms:11 tatoms:24 sratio:0.4583333333333333
  -OEChem-07092417423D

 24 25  0     1  0  0  0  0  0999 V2000
    6.4816   -4.8588   26.6231 Cl  0  0  0  0  0  0  0  0  0  0  0  0
    8.2266   -4.3938   26.2061 S   0  0  0  0  0  0  0  0  0  0  0  0
    9.0090   -5.5920   26.0390 O   0  0  0  0  0  0  0  0  0  0  0  0
    8.7166   -3.5452   27.2312 O   0  0  0  0  0  0  0  0  0  0  0  0
    8.0478   -3.6272   24.7749 N   0  0  0  0  0  0  0  0  0  0  0  0
    8.8991   -2.8841   24.2647 C   0  0  0  0  0  0  0  0  0  0  0  0
    9.4527   -2.1072   23.7347 C   0  0  0  0  0  0  0  0  0  0  0  0
   10.3175   -1.1852   23.2085 C   0  0  1  0  0  0  0  0  0  0  0  0
   10.7754   -0.0977   24.5515 S   0  0  0  0  0  0  0  0  0  0  0  0
   12.0908    0.2009   24.2069 C   0  0  0  0  0  0  0  0  0  0  0  0
   12.9394   -0.1859   23.5844 C   0  0  0  0  0  0  0  0  0  0  0  0
   12.6631   -1.1965   22.8596 C   0  0  0  0  0  0  0  0  0  0  0  0
   11.6344   -1.6361   22.7122 C   0  0  0  0  0  0  0  0  0  0  0  0
    9.9799   -0.4924   22.1862 N   0  0  0  0  0  0  0  0  0  0  0  0
    9.1305    0.0921   21.2056 C   0  0  0  0  0  0  0  0  0  0  0  0
    9.5722    1.0444   20.6187 O   0  0  0  0  0  0  0  0  0  0  0  0
    7.9565   -0.5151   21.0426 N   0  0  0  0  0  0  0  0  0  0  0  0
    7.2774    0.0130   20.1329 C   0  0  0  0  0  0  0  0  0  0  0  0
    7.2895    0.1468   18.8261 C   0  0  0  0  0  0  0  0  0  0  0  0
    6.7745    0.4161   17.7776 N   0  0  0  0  0  0  0  0  0  0  0  0
    5.7309    0.8994   18.1896 C   0  0  0  0  0  0  0  0  0  0  0  0
    5.3520    0.9796   19.3680 C   0  0  0  0  0  0  0  0  0  0  0  0
    5.8319    0.6010   20.4764 C   0  0  0  0  0  0  0  0  0  0  0  0
    5.4348    0.6338   21.4761 H   0  0  0  0  0  0  0  0  0  0  0  0
 20 21  2  0  0  0  0
 19 20  1  0  0  0  0
 21 22  1  0  0  0  0
 18 19  2  0  0  0  0
 22 23  2  0  0  0  0
 18 23  1  0  0  0  0
 17 18  1  0  0  0  0
 23 24  1  0  0  0  0
 15 16  2  0  0  0  0
 15 17  1  0  0  0  0
 14 15  1  0  0  0  0
  8 14  1  0  0  0  0
 12 13  2  0  0  0  0
  8 13  1  0  0  0  0
 11 12  1  0  0  0  0
  7  8  1  0  0  0  0
  8  9  1  0  0  0  0
 10 11  2  0  0  0  0
  6  7  3  0  0  0  0
  9 10  1  0  0  0  0
  5  6  1  0  0  0  0
  2  5  1  0  0  0  0
  2  3  2  0  0  0  0
  1  2  1  0  0  0  0
  2  4  2  0  0  0  0
M  END
> <Shapegauss>
-288.558228

$$$$
