MODEL 1
REMARK VINA RESULT:    -7.617      0.000      0.000
REMARK INTER + INTRA:         -10.615
REMARK INTER:                  -9.843
REMARK INTRA:                  -0.772
REMARK UNBOUND:                -0.772
REMARK  5 active torsions:
REMARK  status: ('A' for Active; 'I' for Inactive)
REMARK    1  A    between atoms: S_2  and  N_5 
REMARK    2  A    between atoms: N_5  and  C_7 
REMARK    3  A    between atoms: C_8  and  C_9 
REMARK    4  A    between atoms: C_9  and  N_15 
REMARK       I    between atoms: N_15  and  C_17 
REMARK       I    between atoms: C_17  and  N_19 
REMARK    5  A    between atoms: N_19  and  C_21 
ROOT
HETATM    1  C   UNL     1       9.999  -1.215  23.387  1.00  0.00     0.172 C 
HETATM    2  S   UNL     1       9.791  -0.386  24.956  1.00  0.00    -0.093 SA
HETATM    3  C   UNL     1      10.996   0.308  25.045  1.00  0.00     0.049 C 
HETATM    4  C   UNL     1      12.038   0.302  24.631  1.00  0.00     0.007 C 
HETATM    5  C   UNL     1      12.252  -0.551  23.711  1.00  0.00     0.001 C 
HETATM    6  C   UNL     1      11.466  -1.191  23.214  1.00  0.00     0.029 C 
ENDROOT
BRANCH   1   7
HETATM    7  C   UNL     1       9.361  -2.421  23.499  1.00  0.00    -0.035 C 
HETATM    8  C   UNL     1       8.701  -3.286  23.590  1.00  0.00     0.025 C 
BRANCH   8   9
HETATM    9  N   UNL     1       8.167  -4.404  23.584  1.00  0.00    -0.230 N 
ATOM     10  HN  UNL     1       8.680  -5.177  24.006  1.00  0.00     0.190 HD
BRANCH   9  11
HETATM   11  S   UNL     1       6.697  -4.725  22.946  1.00  0.00     0.327 S 
HETATM   12 CL   UNL     1       7.111  -5.910  21.583  1.00  0.00     0.042 Cl
HETATM   13  O   UNL     1       5.864  -5.390  23.915  1.00  0.00    -0.188 OA
HETATM   14  O   UNL     1       6.083  -3.583  22.371  1.00  0.00    -0.188 OA
ENDBRANCH   9  11
ENDBRANCH   8   9
ENDBRANCH   1   7
BRANCH   1  15
HETATM   15  N   UNL     1       9.704  -0.414  22.431  1.00  0.00    -0.310 N 
HETATM   16  C   UNL     1       8.909   0.228  21.441  1.00  0.00     0.323 C 
HETATM   17  O   UNL     1       9.311   1.289  21.044  1.00  0.00    -0.247 OA
HETATM   18  N   UNL     1       7.830  -0.450  21.057  1.00  0.00    -0.308 N 
ATOM     19  HN  UNL     1       7.548  -1.346  21.456  1.00  0.00     0.170 HD
ATOM     20  HN  UNL     1      10.597   0.058  22.294  1.00  0.00     0.167 HD
BRANCH  18  21
HETATM   21  C   UNL     1       7.202   0.142  20.150  1.00  0.00     0.051 C 
HETATM   22  C   UNL     1       7.108   0.146  18.839  1.00  0.00     0.117 C 
HETATM   23  N   UNL     1       6.562   0.434  17.811  1.00  0.00    -0.373 N 
HETATM   24  C   UNL     1       5.712   1.195  18.247  1.00  0.00     0.088 C 
ATOM     25  HN  UNL     1       6.752   0.133  16.856  1.00  0.00     0.164 HD
HETATM   26  C   UNL     1       5.490   1.477  19.434  1.00  0.00     0.019 C 
HETATM   27  C   UNL     1       5.981   1.097  20.536  1.00  0.00     0.032 C 
ENDBRANCH  18  21
ENDBRANCH   1  15
TORSDOF 5
ENDMDL
MODEL 2
REMARK VINA RESULT:    -6.961      4.001      5.949
REMARK INTER + INTRA:          -9.767
REMARK INTER:                  -9.163
REMARK INTRA:                  -0.604
REMARK UNBOUND:                -0.772
REMARK  5 active torsions:
REMARK  status: ('A' for Active; 'I' for Inactive)
REMARK    1  A    between atoms: S_2  and  N_5 
REMARK    2  A    between atoms: N_5  and  C_7 
REMARK    3  A    between atoms: C_8  and  C_9 
REMARK    4  A    between atoms: C_9  and  N_15 
REMARK       I    between atoms: N_15  and  C_17 
REMARK       I    between atoms: C_17  and  N_19 
REMARK    5  A    between atoms: N_19  and  C_21 
ROOT
HETATM    1  C   UNL     1       7.459  -4.291  23.694  1.00  0.00     0.172 C 
HETATM    2  S   UNL     1       7.459  -5.664  22.550  1.00  0.00    -0.093 SA
HETATM    3  C   UNL     1       6.531  -5.220  21.611  1.00  0.00     0.049 C 
HETATM    4  C   UNL     1       5.687  -4.491  21.496  1.00  0.00     0.007 C 
HETATM    5  C   UNL     1       5.497  -3.721  22.491  1.00  0.00     0.001 C 
HETATM    6  C   UNL     1       6.168  -3.637  23.395  1.00  0.00     0.029 C 
ENDROOT
BRANCH   1   7
HETATM    7  C   UNL     1       7.663  -4.823  24.938  1.00  0.00    -0.035 C 
HETATM    8  C   UNL     1       7.678  -5.157  25.977  1.00  0.00     0.025 C 
BRANCH   8   9
HETATM    9  N   UNL     1       7.845  -5.746  27.055  1.00  0.00    -0.230 N 
ATOM     10  HN  UNL     1       8.786  -6.070  27.278  1.00  0.00     0.190 HD
BRANCH   9  11
HETATM   11  S   UNL     1       6.662  -6.040  28.143  1.00  0.00     0.327 S 
HETATM   12 CL   UNL     1       5.257  -6.576  27.060  1.00  0.00     0.042 Cl
HETATM   13  O   UNL     1       7.035  -7.129  29.008  1.00  0.00    -0.188 OA
HETATM   14  O   UNL     1       6.260  -4.878  28.849  1.00  0.00    -0.188 OA
ENDBRANCH   9  11
ENDBRANCH   8   9
ENDBRANCH   1   7
BRANCH   1  15
HETATM   15  N   UNL     1       8.223  -3.361  23.255  1.00  0.00    -0.310 N 
HETATM   16  C   UNL     1       9.217  -2.343  23.281  1.00  0.00     0.323 C 
HETATM   17  O   UNL     1       9.701  -2.047  22.221  1.00  0.00    -0.247 OA
HETATM   18  N   UNL     1       9.461  -1.824  24.481  1.00  0.00    -0.308 N 
ATOM     19  HN  UNL     1       9.014  -2.141  25.342  1.00  0.00     0.170 HD
ATOM     20  HN  UNL     1       7.948  -3.334  22.273  1.00  0.00     0.167 HD
BRANCH  18  21
HETATM   21  C   UNL     1      10.305  -0.900  24.431  1.00  0.00     0.051 C 
HETATM   22  C   UNL     1      11.601  -0.737  24.287  1.00  0.00     0.117 C 
HETATM   23  N   UNL     1      12.572  -0.071  24.063  1.00  0.00    -0.373 N 
HETATM   24  C   UNL     1      12.058   1.037  24.072  1.00  0.00     0.088 C 
ATOM     25  HN  UNL     1      13.541  -0.347  23.910  1.00  0.00     0.164 HD
HETATM   26  C   UNL     1      10.854   1.308  24.202  1.00  0.00     0.019 C 
HETATM   27  C   UNL     1       9.804   0.614  24.327  1.00  0.00     0.032 C 
ENDBRANCH  18  21
ENDBRANCH   1  15
TORSDOF 5
ENDMDL
MODEL 3
REMARK VINA RESULT:    -6.738      3.687      6.369
REMARK INTER + INTRA:          -9.479
REMARK INTER:                  -8.833
REMARK INTRA:                  -0.645
REMARK UNBOUND:                -0.772
REMARK  5 active torsions:
REMARK  status: ('A' for Active; 'I' for Inactive)
REMARK    1  A    between atoms: S_2  and  N_5 
REMARK    2  A    between atoms: N_5  and  C_7 
REMARK    3  A    between atoms: C_8  and  C_9 
REMARK    4  A    between atoms: C_9  and  N_15 
REMARK       I    between atoms: N_15  and  C_17 
REMARK       I    between atoms: C_17  and  N_19 
REMARK    5  A    between atoms: N_19  and  C_21 
ROOT
HETATM    1  C   UNL     1       8.538  -1.715  23.011  1.00  0.00     0.172 C 
HETATM    2  S   UNL     1      10.153  -1.523  22.270  1.00  0.00    -0.093 SA
HETATM    3  C   UNL     1      10.914  -1.189  23.388  1.00  0.00     0.049 C 
HETATM    4  C   UNL     1      10.805  -0.785  24.428  1.00  0.00     0.007 C 
HETATM    5  C   UNL     1       9.606  -0.619  24.822  1.00  0.00     0.001 C 
HETATM    6  C   UNL     1       8.681  -0.952  24.268  1.00  0.00     0.029 C 
ENDROOT
BRANCH   1   7
HETATM    7  C   UNL     1       7.631  -1.294  22.076  1.00  0.00    -0.035 C 
HETATM    8  C   UNL     1       6.822  -1.114  21.365  1.00  0.00     0.025 C 
BRANCH   8   9
HETATM    9  N   UNL     1       5.976  -0.643  20.591  1.00  0.00    -0.230 N 
ATOM     10  HN  UNL     1       5.004  -0.635  20.899  1.00  0.00     0.190 HD
BRANCH   9  11
HETATM   11  S   UNL     1       6.311  -0.034  19.113  1.00  0.00     0.327 S 
HETATM   12 CL   UNL     1       5.238   1.477  19.059  1.00  0.00     0.042 Cl
HETATM   13  O   UNL     1       7.693   0.364  19.035  1.00  0.00    -0.188 OA
HETATM   14  O   UNL     1       5.917  -0.896  18.058  1.00  0.00    -0.188 OA
ENDBRANCH   9  11
ENDBRANCH   8   9
ENDBRANCH   1   7
BRANCH   1  15
HETATM   15  N   UNL     1       8.436  -2.881  23.532  1.00  0.00    -0.310 N 
HETATM   16  C   UNL     1       7.808  -4.047  24.050  1.00  0.00     0.323 C 
HETATM   17  O   UNL     1       8.487  -5.039  24.097  1.00  0.00    -0.247 OA
HETATM   18  N   UNL     1       6.549  -3.881  24.448  1.00  0.00    -0.308 N 
ATOM     19  HN  UNL     1       6.035  -3.004  24.362  1.00  0.00     0.170 HD
ATOM     20  HN  UNL     1       9.419  -3.125  23.649  1.00  0.00     0.167 HD
BRANCH  18  21
HETATM   21  C   UNL     1       6.070  -4.929  24.940  1.00  0.00     0.051 C 
HETATM   22  C   UNL     1       6.063  -5.585  26.079  1.00  0.00     0.117 C 
HETATM   23  N   UNL     1       5.631  -6.417  26.825  1.00  0.00    -0.373 N 
HETATM   24  C   UNL     1       4.869  -6.990  26.062  1.00  0.00     0.088 C 
ATOM     25  HN  UNL     1       5.839  -6.594  27.808  1.00  0.00     0.164 HD
HETATM   26  C   UNL     1       4.611  -6.688  24.888  1.00  0.00     0.019 C 
HETATM   27  C   UNL     1       4.971  -5.748  24.120  1.00  0.00     0.032 C 
ENDBRANCH  18  21
ENDBRANCH   1  15
TORSDOF 5
ENDMDL
MODEL 4
REMARK VINA RESULT:    -6.457     20.493     23.196
REMARK INTER + INTRA:          -9.116
REMARK INTER:                  -8.490
REMARK INTRA:                  -0.626
REMARK UNBOUND:                -0.772
REMARK  5 active torsions:
REMARK  status: ('A' for Active; 'I' for Inactive)
REMARK    1  A    between atoms: S_2  and  N_5 
REMARK    2  A    between atoms: N_5  and  C_7 
REMARK    3  A    between atoms: C_8  and  C_9 
REMARK    4  A    between atoms: C_9  and  N_15 
REMARK       I    between atoms: N_15  and  C_17 
REMARK       I    between atoms: C_17  and  N_19 
REMARK    5  A    between atoms: N_19  and  C_21 
ROOT
HETATM    1  C   UNL     1       5.918  11.791   3.098  1.00  0.00     0.172 C 
HETATM    2  S   UNL     1       5.067  12.295   4.586  1.00  0.00    -0.093 SA
HETATM    3  C   UNL     1       3.800  12.574   4.078  1.00  0.00     0.049 C 
HETATM    4  C   UNL     1       3.280  12.815   3.114  1.00  0.00     0.007 C 
HETATM    5  C   UNL     1       4.014  12.765   2.075  1.00  0.00     0.001 C 
HETATM    6  C   UNL     1       5.078  12.389   2.040  1.00  0.00     0.029 C 
ENDROOT
BRANCH   1   7
HETATM    7  C   UNL     1       7.215  12.208   3.233  1.00  0.00    -0.035 C 
HETATM    8  C   UNL     1       8.221  12.631   3.188  1.00  0.00     0.025 C 
BRANCH   8   9
HETATM    9  N   UNL     1       9.360  13.064   3.411  1.00  0.00    -0.230 N 
ATOM     10  HN  UNL     1      10.034  12.429   3.838  1.00  0.00     0.190 HD
BRANCH   9  11
HETATM   11  S   UNL     1       9.858  14.582   3.067  1.00  0.00     0.327 S 
HETATM   12 CL   UNL     1       8.811  15.605   4.204  1.00  0.00     0.042 Cl
HETATM   13  O   UNL     1      11.244  14.748   3.422  1.00  0.00    -0.188 OA
HETATM   14  O   UNL     1       9.572  14.968   1.733  1.00  0.00    -0.188 OA
ENDBRANCH   9  11
ENDBRANCH   8   9
ENDBRANCH   1   7
BRANCH   1  15
HETATM   15  N   UNL     1       5.658  10.562   2.845  1.00  0.00    -0.310 N 
HETATM   16  C   UNL     1       5.152   9.248   3.048  1.00  0.00     0.323 C 
HETATM   17  O   UNL     1       4.997   8.580   2.060  1.00  0.00    -0.247 OA
HETATM   18  N   UNL     1       4.942   8.915   4.319  1.00  0.00    -0.308 N 
ATOM     19  HN  UNL     1       5.086   9.548   5.106  1.00  0.00     0.170 HD
ATOM     20  HN  UNL     1       6.075  10.465   1.919  1.00  0.00     0.167 HD
BRANCH  18  21
HETATM   21  C   UNL     1       4.546   7.732   4.436  1.00  0.00     0.051 C 
HETATM   22  C   UNL     1       5.038   6.529   4.628  1.00  0.00     0.117 C 
HETATM   23  N   UNL     1       4.934   5.369   4.911  1.00  0.00    -0.373 N 
HETATM   24  C   UNL     1       3.716   5.280   4.934  1.00  0.00     0.088 C 
ATOM     25  HN  UNL     1       5.651   4.664   5.083  1.00  0.00     0.164 HD
HETATM   26  C   UNL     1       2.891   6.192   4.776  1.00  0.00     0.019 C 
HETATM   27  C   UNL     1       2.983   7.441   4.589  1.00  0.00     0.032 C 
ENDBRANCH  18  21
ENDBRANCH   1  15
TORSDOF 5
ENDMDL
MODEL 5
REMARK VINA RESULT:    -6.286      2.935      3.393
REMARK INTER + INTRA:          -8.894
REMARK INTER:                  -8.256
REMARK INTRA:                  -0.639
REMARK UNBOUND:                -0.772
REMARK  5 active torsions:
REMARK  status: ('A' for Active; 'I' for Inactive)
REMARK    1  A    between atoms: S_2  and  N_5 
REMARK    2  A    between atoms: N_5  and  C_7 
REMARK    3  A    between atoms: C_8  and  C_9 
REMARK    4  A    between atoms: C_9  and  N_15 
REMARK       I    between atoms: N_15  and  C_17 
REMARK       I    between atoms: C_17  and  N_19 
REMARK    5  A    between atoms: N_19  and  C_21 
ROOT
HETATM    1  C   UNL     1       6.829  -3.216  23.750  1.00  0.00     0.172 C 
HETATM    2  S   UNL     1       6.016  -2.176  24.956  1.00  0.00    -0.093 SA
HETATM    3  C   UNL     1       7.115  -1.674  25.648  1.00  0.00     0.049 C 
HETATM    4  C   UNL     1       8.197  -1.894  25.846  1.00  0.00     0.007 C 
HETATM    5  C   UNL     1       8.678  -2.877  25.196  1.00  0.00     0.001 C 
HETATM    6  C   UNL     1       8.148  -3.443  24.375  1.00  0.00     0.029 C 
ENDROOT
BRANCH   1   7
HETATM    7  C   UNL     1       5.999  -4.284  23.538  1.00  0.00    -0.035 C 
HETATM    8  C   UNL     1       5.437  -5.165  23.222  1.00  0.00     0.025 C 
BRANCH   8   9
HETATM    9  N   UNL     1       4.728  -6.178  23.132  1.00  0.00    -0.230 N 
ATOM     10  HN  UNL     1       4.963  -6.857  22.408  1.00  0.00     0.190 HD
BRANCH   9  11
HETATM   11  S   UNL     1       3.446  -6.499  24.090  1.00  0.00     0.327 S 
HETATM   12 CL   UNL     1       2.017  -6.176  22.955  1.00  0.00     0.042 Cl
HETATM   13  O   UNL     1       3.441  -7.887  24.474  1.00  0.00    -0.188 OA
HETATM   14  O   UNL     1       3.345  -5.614  25.194  1.00  0.00    -0.188 OA
ENDBRANCH   9  11
ENDBRANCH   8   9
ENDBRANCH   1   7
BRANCH   1  15
HETATM   15  N   UNL     1       7.230  -2.504  22.764  1.00  0.00    -0.310 N 
HETATM   16  C   UNL     1       7.152  -1.616  21.655  1.00  0.00     0.323 C 
HETATM   17  O   UNL     1       8.174  -1.065  21.342  1.00  0.00    -0.247 OA
HETATM   18  N   UNL     1       5.953  -1.533  21.083  1.00  0.00    -0.308 N 
ATOM     19  HN  UNL     1       5.126  -2.026  21.419  1.00  0.00     0.170 HD
ATOM     20  HN  UNL     1       8.233  -2.689  22.790  1.00  0.00     0.167 HD
BRANCH  18  21
HETATM   21  C   UNL     1       5.961  -0.778  20.083  1.00  0.00     0.051 C 
HETATM   22  C   UNL     1       5.877  -0.853  18.774  1.00  0.00     0.117 C 
HETATM   23  N   UNL     1       5.711  -0.372  17.689  1.00  0.00    -0.373 N 
HETATM   24  C   UNL     1       5.723   0.810  17.993  1.00  0.00     0.088 C 
ATOM     25  HN  UNL     1       5.594  -0.819  16.780  1.00  0.00     0.164 HD
HETATM   26  C   UNL     1       5.807   1.295  19.131  1.00  0.00     0.019 C 
HETATM   27  C   UNL     1       5.870   0.803  20.295  1.00  0.00     0.032 C 
ENDBRANCH  18  21
ENDBRANCH   1  15
TORSDOF 5
ENDMDL
MODEL 6
REMARK VINA RESULT:    -6.122      2.420      2.844
REMARK INTER + INTRA:          -8.683
REMARK INTER:                  -7.995
REMARK INTRA:                  -0.687
REMARK UNBOUND:                -0.772
REMARK  5 active torsions:
REMARK  status: ('A' for Active; 'I' for Inactive)
REMARK    1  A    between atoms: S_2  and  N_5 
REMARK    2  A    between atoms: N_5  and  C_7 
REMARK    3  A    between atoms: C_8  and  C_9 
REMARK    4  A    between atoms: C_9  and  N_15 
REMARK       I    between atoms: N_15  and  C_17 
REMARK       I    between atoms: C_17  and  N_19 
REMARK    5  A    between atoms: N_19  and  C_21 
ROOT
HETATM    1  C   UNL     1       9.348  -1.318  23.130  1.00  0.00     0.172 C 
HETATM    2  S   UNL     1       9.737  -0.805  24.797  1.00  0.00    -0.093 SA
HETATM    3  C   UNL     1      11.068  -0.421  24.645  1.00  0.00     0.049 C 
HETATM    4  C   UNL     1      11.945  -0.566  23.963  1.00  0.00     0.007 C 
HETATM    5  C   UNL     1      11.707  -1.237  22.908  1.00  0.00     0.001 C 
HETATM    6  C   UNL     1      10.687  -1.576  22.562  1.00  0.00     0.029 C 
ENDROOT
BRANCH   1   7
HETATM    7  C   UNL     1       8.460  -2.355  23.241  1.00  0.00    -0.035 C 
HETATM    8  C   UNL     1       7.807  -3.190  23.502  1.00  0.00     0.025 C 
BRANCH   8   9
HETATM    9  N   UNL     1       6.918  -4.050  23.580  1.00  0.00    -0.230 N 
ATOM     10  HN  UNL     1       6.529  -4.248  24.501  1.00  0.00     0.190 HD
BRANCH   9  11
HETATM   11  S   UNL     1       6.327  -4.887  22.308  1.00  0.00     0.327 S 
HETATM   12 CL   UNL     1       5.123  -6.039  23.122  1.00  0.00     0.042 Cl
HETATM   13  O   UNL     1       5.613  -4.010  21.417  1.00  0.00    -0.188 OA
HETATM   14  O   UNL     1       7.313  -5.668  21.653  1.00  0.00    -0.188 OA
ENDBRANCH   9  11
ENDBRANCH   8   9
ENDBRANCH   1   7
BRANCH   1  15
HETATM   15  N   UNL     1       9.058  -0.293  22.417  1.00  0.00    -0.310 N 
HETATM   16  C   UNL     1       8.622   1.027  22.114  1.00  0.00     0.323 C 
HETATM   17  O   UNL     1       8.965   1.467  21.049  1.00  0.00    -0.247 OA
HETATM   18  N   UNL     1       7.860   1.597  23.044  1.00  0.00    -0.308 N 
ATOM     19  HN  UNL     1       7.623   1.159  23.935  1.00  0.00     0.170 HD
ATOM     20  HN  UNL     1       9.274  -0.642  21.484  1.00  0.00     0.167 HD
BRANCH  18  21
HETATM   21  C   UNL     1       7.467   2.734  22.697  1.00  0.00     0.051 C 
HETATM   22  C   UNL     1       6.442   3.298  22.099  1.00  0.00     0.117 C 
HETATM   23  N   UNL     1       5.774   4.247  21.798  1.00  0.00    -0.373 N 
HETATM   24  C   UNL     1       6.512   5.138  22.187  1.00  0.00     0.088 C 
ATOM     25  HN  UNL     1       4.860   4.295  21.350  1.00  0.00     0.164 HD
HETATM   26  C   UNL     1       7.592   5.015  22.785  1.00  0.00     0.019 C 
HETATM   27  C   UNL     1       8.256   4.025  23.210  1.00  0.00     0.032 C 
ENDBRANCH  18  21
ENDBRANCH   1  15
TORSDOF 5
ENDMDL
MODEL 7
REMARK VINA RESULT:    -6.042     14.627     15.597
REMARK INTER + INTRA:          -8.580
REMARK INTER:                  -7.814
REMARK INTRA:                  -0.767
REMARK UNBOUND:                -0.772
REMARK  5 active torsions:
REMARK  status: ('A' for Active; 'I' for Inactive)
REMARK    1  A    between atoms: S_2  and  N_5 
REMARK    2  A    between atoms: N_5  and  C_7 
REMARK    3  A    between atoms: C_8  and  C_9 
REMARK    4  A    between atoms: C_9  and  N_15 
REMARK       I    between atoms: N_15  and  C_17 
REMARK       I    between atoms: C_17  and  N_19 
REMARK    5  A    between atoms: N_19  and  C_21 
ROOT
HETATM    1  C   UNL     1      23.062  -1.882  24.294  1.00  0.00     0.172 C 
HETATM    2  S   UNL     1      21.342  -1.400  24.225  1.00  0.00    -0.093 SA
HETATM    3  C   UNL     1      21.430  -0.070  24.629  1.00  0.00     0.049 C 
HETATM    4  C   UNL     1      22.111   0.632  25.177  1.00  0.00     0.007 C 
HETATM    5  C   UNL     1      23.238   0.144  25.512  1.00  0.00     0.001 C 
HETATM    6  C   UNL     1      23.634  -0.866  25.200  1.00  0.00     0.029 C 
ENDROOT
BRANCH   1   7
HETATM    7  C   UNL     1      23.079  -3.198  24.673  1.00  0.00    -0.035 C 
HETATM    8  C   UNL     1      23.261  -4.248  24.909  1.00  0.00     0.025 C 
BRANCH   8   9
HETATM    9  N   UNL     1      23.266  -5.401  25.364  1.00  0.00    -0.230 N 
ATOM     10  HN  UNL     1      22.429  -5.968  25.228  1.00  0.00     0.190 HD
BRANCH   9  11
HETATM   11  S   UNL     1      24.519  -6.075  26.166  1.00  0.00     0.327 S 
HETATM   12 CL   UNL     1      25.925  -5.813  24.987  1.00  0.00     0.042 Cl
HETATM   13  O   UNL     1      24.782  -5.352  27.384  1.00  0.00    -0.188 OA
HETATM   14  O   UNL     1      24.362  -7.470  26.367  1.00  0.00    -0.188 OA
ENDBRANCH   9  11
ENDBRANCH   8   9
ENDBRANCH   1   7
BRANCH   1  15
HETATM   15  N   UNL     1      23.660  -1.510  23.224  1.00  0.00    -0.310 N 
HETATM   16  C   UNL     1      23.875  -1.301  21.833  1.00  0.00     0.323 C 
HETATM   17  O   UNL     1      24.693  -0.469  21.542  1.00  0.00    -0.247 OA
HETATM   18  N   UNL     1      23.159  -2.082  21.028  1.00  0.00    -0.308 N 
ATOM     19  HN  UNL     1      22.470  -2.760  21.355  1.00  0.00     0.170 HD
ATOM     20  HN  UNL     1      24.519  -1.119  23.611  1.00  0.00     0.167 HD
BRANCH  18  21
HETATM   21  C   UNL     1      23.431  -1.887  19.821  1.00  0.00     0.051 C 
HETATM   22  C   UNL     1      24.276  -2.307  18.906  1.00  0.00     0.117 C 
HETATM   23  N   UNL     1      24.646  -2.425  17.772  1.00  0.00    -0.373 N 
HETATM   24  C   UNL     1      23.851  -1.675  17.227  1.00  0.00     0.088 C 
ATOM     25  HN  UNL     1      25.401  -2.986  17.380  1.00  0.00     0.164 HD
HETATM   26  C   UNL     1      22.909  -1.063  17.753  1.00  0.00     0.019 C 
HETATM   27  C   UNL     1      22.436  -1.015  18.926  1.00  0.00     0.032 C 
ENDBRANCH  18  21
ENDBRANCH   1  15
TORSDOF 5
ENDMDL
MODEL 8
REMARK VINA RESULT:    -6.026     14.306     15.402
REMARK INTER + INTRA:          -8.559
REMARK INTER:                  -7.993
REMARK INTRA:                  -0.566
REMARK UNBOUND:                -0.772
REMARK  5 active torsions:
REMARK  status: ('A' for Active; 'I' for Inactive)
REMARK    1  A    between atoms: S_2  and  N_5 
REMARK    2  A    between atoms: N_5  and  C_7 
REMARK    3  A    between atoms: C_8  and  C_9 
REMARK    4  A    between atoms: C_9  and  N_15 
REMARK       I    between atoms: N_15  and  C_17 
REMARK       I    between atoms: C_17  and  N_19 
REMARK    5  A    between atoms: N_19  and  C_21 
ROOT
HETATM    1  C   UNL     1      23.074  -1.826  23.654  1.00  0.00     0.172 C 
HETATM    2  S   UNL     1      21.811  -1.676  24.910  1.00  0.00    -0.093 SA
HETATM    3  C   UNL     1      21.734  -0.291  25.036  1.00  0.00     0.049 C 
HETATM    4  C   UNL     1      22.326   0.638  24.827  1.00  0.00     0.007 C 
HETATM    5  C   UNL     1      23.417   0.456  24.197  1.00  0.00     0.001 C 
HETATM    6  C   UNL     1      23.757  -0.519  23.742  1.00  0.00     0.029 C 
ENDROOT
BRANCH   1   7
HETATM    7  C   UNL     1      23.775  -2.965  23.945  1.00  0.00    -0.035 C 
HETATM    8  C   UNL     1      24.415  -3.774  24.303  1.00  0.00     0.025 C 
BRANCH   8   9
HETATM    9  N   UNL     1      24.946  -4.855  24.597  1.00  0.00    -0.230 N 
ATOM     10  HN  UNL     1      25.901  -5.016  24.280  1.00  0.00     0.190 HD
BRANCH   9  11
HETATM   11  S   UNL     1      24.221  -6.038  25.458  1.00  0.00     0.327 S 
HETATM   12 CL   UNL     1      25.574  -6.574  26.605  1.00  0.00     0.042 Cl
HETATM   13  O   UNL     1      23.130  -5.501  26.231  1.00  0.00    -0.188 OA
HETATM   14  O   UNL     1      23.847  -7.151  24.663  1.00  0.00    -0.188 OA
ENDBRANCH   9  11
ENDBRANCH   8   9
ENDBRANCH   1   7
BRANCH   1  15
HETATM   15  N   UNL     1      22.553  -1.666  22.494  1.00  0.00    -0.310 N 
HETATM   16  C   UNL     1      22.471  -1.630  21.074  1.00  0.00     0.323 C 
HETATM   17  O   UNL     1      21.366  -1.690  20.604  1.00  0.00    -0.247 OA
HETATM   18  N   UNL     1      23.637  -1.504  20.445  1.00  0.00    -0.308 N 
ATOM     19  HN  UNL     1      24.540  -1.473  20.919  1.00  0.00     0.170 HD
ATOM     20  HN  UNL     1      21.603  -1.394  22.747  1.00  0.00     0.167 HD
BRANCH  18  21
HETATM   21  C   UNL     1      23.495  -1.426  19.203  1.00  0.00     0.051 C 
HETATM   22  C   UNL     1      23.167  -0.542  18.288  1.00  0.00     0.117 C 
HETATM   23  N   UNL     1      23.101  -0.156  17.155  1.00  0.00    -0.373 N 
HETATM   24  C   UNL     1      23.436  -1.179  16.579  1.00  0.00     0.088 C 
ATOM     25  HN  UNL     1      22.842   0.757  16.783  1.00  0.00     0.164 HD
HETATM   26  C   UNL     1      23.801  -2.248  17.092  1.00  0.00     0.019 C 
HETATM   27  C   UNL     1      23.983  -2.637  18.282  1.00  0.00     0.032 C 
ENDBRANCH  18  21
ENDBRANCH   1  15
TORSDOF 5
ENDMDL
MODEL 9
REMARK VINA RESULT:    -5.639      7.392     10.156
REMARK INTER + INTRA:          -8.059
REMARK INTER:                  -7.323
REMARK INTRA:                  -0.736
REMARK UNBOUND:                -0.772
REMARK  5 active torsions:
REMARK  status: ('A' for Active; 'I' for Inactive)
REMARK    1  A    between atoms: S_2  and  N_5 
REMARK    2  A    between atoms: N_5  and  C_7 
REMARK    3  A    between atoms: C_8  and  C_9 
REMARK    4  A    between atoms: C_9  and  N_15 
REMARK       I    between atoms: N_15  and  C_17 
REMARK       I    between atoms: C_17  and  N_19 
REMARK    5  A    between atoms: N_19  and  C_21 
ROOT
HETATM    1  C   UNL     1       1.193  -7.390  23.384  1.00  0.00     0.172 C 
HETATM    2  S   UNL     1       0.888  -7.977  21.724  1.00  0.00    -0.093 SA
HETATM    3  C   UNL     1      -0.014  -7.017  21.271  1.00  0.00     0.049 C 
HETATM    4  C   UNL     1      -0.730  -6.244  21.654  1.00  0.00     0.007 C 
HETATM    5  C   UNL     1      -0.722  -6.074  22.915  1.00  0.00     0.001 C 
HETATM    6  C   UNL     1       0.013  -6.539  23.635  1.00  0.00     0.029 C 
ENDROOT
BRANCH   1   7
HETATM    7  C   UNL     1       1.389  -8.503  24.158  1.00  0.00    -0.035 C 
HETATM    8  C   UNL     1       1.706  -9.318  24.811  1.00  0.00     0.025 C 
BRANCH   8   9
HETATM    9  N   UNL     1       1.793 -10.287  25.579  1.00  0.00    -0.230 N 
ATOM     10  HN  UNL     1       2.680 -10.432  26.061  1.00  0.00     0.190 HD
BRANCH   9  11
HETATM   11  S   UNL     1       0.586 -11.347  25.872  1.00  0.00     0.327 S 
HETATM   12 CL   UNL     1      -0.829 -10.226  26.290  1.00  0.00     0.042 Cl
HETATM   13  O   UNL     1       0.267 -12.087  24.678  1.00  0.00    -0.188 OA
HETATM   14  O   UNL     1       0.840 -12.178  26.993  1.00  0.00    -0.188 OA
ENDBRANCH   9  11
ENDBRANCH   8   9
ENDBRANCH   1   7
BRANCH   1  15
HETATM   15  N   UNL     1       2.071  -6.458  23.360  1.00  0.00    -0.310 N 
HETATM   16  C   UNL     1       3.359  -5.854  23.312  1.00  0.00     0.323 C 
HETATM   17  O   UNL     1       3.394  -4.705  22.960  1.00  0.00    -0.247 OA
HETATM   18  N   UNL     1       4.364  -6.637  23.697  1.00  0.00    -0.308 N 
ATOM     19  HN  UNL     1       4.253  -7.613  23.971  1.00  0.00     0.170 HD
ATOM     20  HN  UNL     1       1.475  -5.632  23.398  1.00  0.00     0.167 HD
BRANCH  18  21
HETATM   21  C   UNL     1       5.461  -6.034  23.683  1.00  0.00     0.051 C 
HETATM   22  C   UNL     1       6.255  -5.385  24.504  1.00  0.00     0.117 C 
HETATM   23  N   UNL     1       7.307  -4.895  24.803  1.00  0.00    -0.373 N 
HETATM   24  C   UNL     1       7.879  -4.983  23.728  1.00  0.00     0.088 C 
ATOM     25  HN  UNL     1       7.630  -4.516  25.693  1.00  0.00     0.164 HD
HETATM   26  C   UNL     1       7.454  -5.514  22.690  1.00  0.00     0.019 C 
HETATM   27  C   UNL     1       6.393  -6.134  22.389  1.00  0.00     0.032 C 
ENDBRANCH  18  21
ENDBRANCH   1  15
TORSDOF 5
ENDMDL
