stable:False satoms:6 tatoms:24 sratio:0.25
  -OEChem-07092417463D

 24 26  0     1  0  0  0  0  0999 V2000
    6.6425   -4.8692   26.4677 C   0  0  0  0  0  0  0  0  0  0  0  0
    8.2191   -4.3018   26.0765 S   0  0  0  0  0  0  0  0  0  0  0  0
    9.0631   -5.4641   25.9954 O   0  0  0  0  0  0  0  0  0  0  0  0
    8.6182   -3.4126   27.1314 O   0  0  0  0  0  0  0  0  0  0  0  0
    8.0472   -3.5702   24.6335 N   0  0  0  0  0  0  0  0  0  0  0  0
    8.8910   -2.8848   24.1187 C   0  0  0  0  0  0  0  0  0  0  0  0
    9.3987   -1.9512   23.5161 C   0  0  0  0  0  0  0  0  0  0  0  0
   10.3628   -1.1237   23.2383 C   0  0  1  0  0  0  0  0  0  0  0  0
   11.0470   -0.0119   24.2773 C   0  0  0  0  0  0  0  0  0  0  0  0
   12.0834    0.2874   24.2917 C   0  0  0  0  0  0  0  0  0  0  0  0
   13.1004   -0.2351   23.5385 C   0  0  0  0  0  0  0  0  0  0  0  0
   12.7391   -1.3056   22.7123 C   0  0  0  0  0  0  0  0  0  0  0  0
   11.7689   -1.7404   22.6114 C   0  0  0  0  0  0  0  0  0  0  0  0
    9.6861   -0.5996   22.4020 C   0  0  3  0  0  0  0  0  0  0  0  0
    9.0461    0.0590   21.4113 C   0  0  0  0  0  0  0  0  0  0  0  0
    9.5624    0.9893   20.9872 O   0  0  0  0  0  0  0  0  0  0  0  0
    7.8993   -0.5418   21.1034 N   0  0  0  0  0  0  0  0  0  0  0  0
    7.1966   -0.1070   20.2012 C   0  0  0  0  0  0  0  0  0  0  0  0
    7.1931    0.0252   18.9124 C   0  0  0  0  0  0  0  0  0  0  0  0
    6.7759    0.3621   17.7833 N   0  0  0  0  0  0  0  0  0  0  0  0
    5.7268    0.8928   18.2890 C   0  0  0  0  0  0  0  0  0  0  0  0
    5.2797    1.0112   19.4342 C   0  0  0  0  0  0  0  0  0  0  0  0
    5.7913    0.5672   20.5865 C   0  0  0  0  0  0  0  0  0  0  0  0
    5.4455    0.6345   21.5775 C   0  0  0  0  0  0  0  0  0  0  0  0
 20 21  2  0  0  0  0
 19 20  1  0  0  0  0
 21 22  1  0  0  0  0
 18 19  2  0  0  0  0
 22 23  2  0  0  0  0
 18 23  1  0  0  0  0
 17 18  1  0  0  0  0
 23 24  1  0  0  0  0
 15 16  2  0  0  0  0
 15 17  1  0  0  0  0
 14 15  1  0  0  0  0
  8 14  1  0  0  0  0
  7 14  1  0  0  0  0
 12 13  1  0  0  0  0
  8 13  1  0  0  0  0
 11 12  2  0  0  0  0
  7  8  1  0  0  0  0
  8  9  1  0  0  0  0
  6  7  2  3  0  0  0
 10 11  1  0  0  0  0
  5  6  1  0  0  0  0
  9 10  2  0  0  0  0
  2  5  1  0  0  0  0
  2  3  2  0  0  0  0
  1  2  1  0  0  0  0
  2  4  2  0  0  0  0
M  END
> <Shapegauss>
-289.683319

$$$$
