stable:False satoms:6 tatoms:24 sratio:0.25
  -OEChem-08062414043D

 43 45  0     1  0  0  0  0  0999 V2000
    6.8296   -5.2932   26.2503 C   0  0  0  0  0  0  0  0  0  0  0  0
    8.4071   -4.6610   25.9815 S   0  0  0  0  0  0  0  0  0  0  0  0
    9.2922   -5.7923   25.8999 O   0  0  0  0  0  0  0  0  0  0  0  0
    8.7135   -3.8104   27.0974 O   0  0  0  0  0  0  0  0  0  0  0  0
    8.2973   -3.8684   24.5649 N   0  0  0  0  0  0  0  0  0  0  0  0
    9.1472   -3.1347   24.1335 C   0  0  0  0  0  0  0  0  0  0  0  0
    9.6589   -2.1592   23.6053 C   0  0  0  0  0  0  0  0  0  0  0  0
   10.6101   -1.2910   23.4239 C   0  0  1  0  0  0  0  0  0  0  0  0
   11.1946   -0.2088   24.5513 C   0  0  0  0  0  0  0  0  0  0  0  0
   12.2179    0.1206   24.6421 C   0  0  0  0  0  0  0  0  0  0  0  0
   13.2944   -0.3354   23.9295 C   0  0  0  0  0  0  0  0  0  0  0  0
   13.0181   -1.3766   23.0358 C   0  0  0  0  0  0  0  0  0  0  0  0
   12.0704   -1.8352   22.8567 C   0  0  0  0  0  0  0  0  0  0  0  0
    9.9674   -0.7490   22.5723 C   0  0  3  0  0  0  0  0  0  0  0  0
    9.3661   -0.0645   21.5750 C   0  0  0  0  0  0  0  0  0  0  0  0
    9.8759    0.8997   21.2251 O   0  0  0  0  0  0  0  0  0  0  0  0
    8.2599   -0.6845   21.1713 N   0  0  0  0  0  0  0  0  0  0  0  0
    7.5982   -0.2294   20.2484 C   0  0  0  0  0  0  0  0  0  0  0  0
    7.6669   -0.0374   18.9690 C   0  0  0  0  0  0  0  0  0  0  0  0
    7.3066    0.3390   17.8328 N   0  0  0  0  0  0  0  0  0  0  0  0
    6.2125    0.8138   18.2970 C   0  0  0  0  0  0  0  0  0  0  0  0
    5.6945    0.8652   19.4171 C   0  0  0  0  0  0  0  0  0  0  0  0
    6.1511    0.3835   20.5773 C   0  0  0  0  0  0  0  0  0  0  0  0
    5.7450    0.3941   21.5475 C   0  0  0  0  0  0  0  0  0  0  0  0
    6.8140   -5.8505   27.1985 H   0  0  0  0  0  0  0  0  0  0  0  0
    6.1066   -4.4656   26.2997 H   0  0  0  0  0  0  0  0  0  0  0  0
    6.5592   -5.9674   25.4243 H   0  0  0  0  0  0  0  0  0  0  0  0
    7.4682   -3.3131   24.6294 H   0  0  0  0  0  0  0  0  0  0  0  0
   10.0306   -3.7133   24.3599 H   0  0  0  0  0  0  0  0  0  0  0  0
   10.4835    0.1993   25.2544 H   0  0  0  0  0  0  0  0  0  0  0  0
   12.4139    0.8916   25.3724 H   0  0  0  0  0  0  0  0  0  0  0  0
   14.2849    0.0783   24.0484 H   0  0  0  0  0  0  0  0  0  0  0  0
   13.8530   -1.7571   22.4661 H   0  0  0  0  0  0  0  0  0  0  0  0
   11.9641   -1.8634   21.7622 H   0  0  0  0  0  0  0  0  0  0  0  0
   12.1672   -2.8609   23.2422 H   0  0  0  0  0  0  0  0  0  0  0  0
    9.5067   -0.0878   23.3209 H   0  0  0  0  0  0  0  0  0  0  0  0
    7.9681   -1.5267   21.6247 H   0  0  0  0  0  0  0  0  0  0  0  0
    8.6313   -0.4699   18.7469 H   0  0  0  0  0  0  0  0  0  0  0  0
    5.6023    1.2752   17.5347 H   0  0  0  0  0  0  0  0  0  0  0  0
    4.7405    1.3691   19.4658 H   0  0  0  0  0  0  0  0  0  0  0  0
    5.1539   -0.5196   21.7081 H   0  0  0  0  0  0  0  0  0  0  0  0
    6.5597    0.4381   22.2853 H   0  0  0  0  0  0  0  0  0  0  0  0
    5.0969    1.2752   21.6640 H   0  0  0  0  0  0  0  0  0  0  0  0
 20 21  2  0  0  0  0
 19 20  1  0  0  0  0
 21 22  1  0  0  0  0
 18 19  2  0  0  0  0
 22 23  2  0  0  0  0
 18 23  1  0  0  0  0
 17 18  1  0  0  0  0
 23 24  1  0  0  0  0
 15 16  2  0  0  0  0
 15 17  1  0  0  0  0
 14 15  1  0  0  0  0
  8 14  1  0  0  0  0
  7 14  1  0  0  0  0
 12 13  1  0  0  0  0
  8 13  1  0  0  0  0
 11 12  2  0  0  0  0
  7  8  1  0  0  0  0
  8  9  1  0  0  0  0
  6  7  2  3  0  0  0
 10 11  1  0  0  0  0
  5  6  1  0  0  0  0
  9 10  2  0  0  0  0
  2  5  1  0  0  0  0
  2  3  2  0  0  0  0
  1  2  1  0  0  0  0
  2  4  2  0  0  0  0
  1 25  1  0  0  0  0
  1 26  1  0  0  0  0
  1 27  1  0  0  0  0
  5 28  1  0  0  0  0
  6 29  1  0  0  0  0
  9 30  1  0  0  0  0
 10 31  1  0  0  0  0
 11 32  1  0  0  0  0
 12 33  1  0  0  0  0
 13 34  1  0  0  0  0
 13 35  1  0  0  0  0
 14 36  1  0  0  0  0
 17 37  1  0  0  0  0
 19 38  1  0  0  0  0
 21 39  1  0  0  0  0
 22 40  1  0  0  0  0
 24 41  1  0  0  0  0
 24 42  1  0  0  0  0
 24 43  1  0  0  0  0
M  END
> <Chemgauss4>
-13.421843

$$$$
