stable:False satoms:6 tatoms:24 sratio:0.25
  -OEChem-08062414043D

 43 45  0     1  0  0  0  0  0999 V2000
   -6.5432   -5.1473  -26.3000 C   0  0  0  0  0  0  0  0  0  0  0  0
   -8.1208   -4.5151  -26.0312 S   0  0  0  0  0  0  0  0  0  0  0  0
   -9.0058   -5.6464  -25.9496 O   0  0  0  0  0  0  0  0  0  0  0  0
   -8.4271   -3.6645  -27.1471 O   0  0  0  0  0  0  0  0  0  0  0  0
   -8.0109   -3.7225  -24.6145 N   0  0  0  0  0  0  0  0  0  0  0  0
   -8.8609   -2.9888  -24.1832 C   0  0  0  0  0  0  0  0  0  0  0  0
   -9.3725   -2.0132  -23.6550 C   0  0  0  0  0  0  0  0  0  0  0  0
  -10.3237   -1.1451  -23.4736 C   0  0  1  0  0  0  0  0  0  0  0  0
  -10.9082   -0.0629  -24.6010 C   0  0  0  0  0  0  0  0  0  0  0  0
  -11.9315    0.2665  -24.6918 C   0  0  0  0  0  0  0  0  0  0  0  0
  -13.0081   -0.1895  -23.9792 C   0  0  0  0  0  0  0  0  0  0  0  0
  -12.7318   -1.2307  -23.0855 C   0  0  0  0  0  0  0  0  0  0  0  0
  -11.7841   -1.6893  -22.9064 C   0  0  0  0  0  0  0  0  0  0  0  0
   -9.6811   -0.6031  -22.6220 C   0  0  3  0  0  0  0  0  0  0  0  0
   -9.0797    0.0814  -21.6247 C   0  0  0  0  0  0  0  0  0  0  0  0
   -9.5895    1.0456  -21.2748 O   0  0  0  0  0  0  0  0  0  0  0  0
   -7.9736   -0.5386  -21.2210 N   0  0  0  0  0  0  0  0  0  0  0  0
   -7.3118   -0.0835  -20.2981 C   0  0  0  0  0  0  0  0  0  0  0  0
   -7.3805    0.1085  -19.0187 C   0  0  0  0  0  0  0  0  0  0  0  0
   -7.0202    0.4850  -17.8825 N   0  0  0  0  0  0  0  0  0  0  0  0
   -5.9261    0.9597  -18.3467 C   0  0  0  0  0  0  0  0  0  0  0  0
   -5.4082    1.0111  -19.4668 C   0  0  0  0  0  0  0  0  0  0  0  0
   -5.8647    0.5294  -20.6270 C   0  0  0  0  0  0  0  0  0  0  0  0
   -5.4587    0.5400  -21.5972 C   0  0  0  0  0  0  0  0  0  0  0  0
   -6.5276   -5.7046  -27.2482 H   0  0  0  0  0  0  0  0  0  0  0  0
   -5.8202   -4.3197  -26.3493 H   0  0  0  0  0  0  0  0  0  0  0  0
   -6.2729   -5.8215  -25.4740 H   0  0  0  0  0  0  0  0  0  0  0  0
   -7.1818   -3.1672  -24.6791 H   0  0  0  0  0  0  0  0  0  0  0  0
   -9.7442   -3.5674  -24.4096 H   0  0  0  0  0  0  0  0  0  0  0  0
  -10.1972    0.3452  -25.3041 H   0  0  0  0  0  0  0  0  0  0  0  0
  -12.1276    1.0375  -25.4221 H   0  0  0  0  0  0  0  0  0  0  0  0
  -13.9986    0.2242  -24.0981 H   0  0  0  0  0  0  0  0  0  0  0  0
  -13.5667   -1.6112  -22.5158 H   0  0  0  0  0  0  0  0  0  0  0  0
  -11.6778   -1.7175  -21.8119 H   0  0  0  0  0  0  0  0  0  0  0  0
  -11.8808   -2.7150  -23.2919 H   0  0  0  0  0  0  0  0  0  0  0  0
   -9.2203    0.0581  -23.3706 H   0  0  0  0  0  0  0  0  0  0  0  0
   -7.6818   -1.3808  -21.6744 H   0  0  0  0  0  0  0  0  0  0  0  0
   -8.3449   -0.3240  -18.7966 H   0  0  0  0  0  0  0  0  0  0  0  0
   -5.3159    1.4211  -17.5844 H   0  0  0  0  0  0  0  0  0  0  0  0
   -4.4542    1.5150  -19.5154 H   0  0  0  0  0  0  0  0  0  0  0  0
   -4.8676   -0.3737  -21.7578 H   0  0  0  0  0  0  0  0  0  0  0  0
   -6.2733    0.5840  -22.3350 H   0  0  0  0  0  0  0  0  0  0  0  0
   -4.8105    1.4211  -21.7136 H   0  0  0  0  0  0  0  0  0  0  0  0
 20 21  2  0  0  0  0
 19 20  1  0  0  0  0
 21 22  1  0  0  0  0
 18 19  2  0  0  0  0
 22 23  2  0  0  0  0
 18 23  1  0  0  0  0
 17 18  1  0  0  0  0
 23 24  1  0  0  0  0
 15 16  2  0  0  0  0
 15 17  1  0  0  0  0
 14 15  1  0  0  0  0
  8 14  1  0  0  0  0
  7 14  1  0  0  0  0
 12 13  1  0  0  0  0
  8 13  1  0  0  0  0
 11 12  2  0  0  0  0
  7  8  1  0  0  0  0
  8  9  1  0  0  0  0
  6  7  2  3  0  0  0
 10 11  1  0  0  0  0
  5  6  1  0  0  0  0
  9 10  2  0  0  0  0
  2  5  1  0  0  0  0
  2  3  2  0  0  0  0
  1  2  1  0  0  0  0
  2  4  2  0  0  0  0
  1 25  1  0  0  0  0
  1 26  1  0  0  0  0
  1 27  1  0  0  0  0
  5 28  1  0  0  0  0
  6 29  1  0  0  0  0
  9 30  1  0  0  0  0
 10 31  1  0  0  0  0
 11 32  1  0  0  0  0
 12 33  1  0  0  0  0
 13 34  1  0  0  0  0
 13 35  1  0  0  0  0
 14 36  1  0  0  0  0
 17 37  1  0  0  0  0
 19 38  1  0  0  0  0
 21 39  1  0  0  0  0
 22 40  1  0  0  0  0
 24 41  1  0  0  0  0
 24 42  1  0  0  0  0
 24 43  1  0  0  0  0
M  END
> <Chemgauss4>
-13.390142

$$$$
