stable:False satoms:17 tatoms:24 sratio:0.7083333333333334
  -OEChem-07092417403D

 24 23  0     0  0  0  0  0  0999 V2000
    7.0373   -4.7634   26.3581 F   0  0  0  0  0  0  0  0  0  0  0  0
    8.3322   -4.4504   25.9829 C   0  0  0  0  0  0  0  0  0  0  0  0
    8.9731   -5.5863   25.6617 F   0  0  0  0  0  0  0  0  0  0  0  0
    8.8389   -3.9925   26.8593 H   0  0  0  0  0  0  0  0  0  0  0  0
    8.3788   -3.5890   24.8941 C   0  0  0  0  0  0  0  0  0  0  0  0
    8.8914   -2.7993   24.1448 C   0  0  0  0  0  0  0  0  0  0  0  0
    9.2044   -1.9563   23.4132 N   0  0  0  0  0  0  0  0  0  0  0  0
   11.1497   -0.7211   23.9044 C   0  0  0  0  0  0  0  0  0  0  0  0
   10.7541   -0.5676   24.8771 H   0  0  0  0  0  0  0  0  0  0  0  0
   12.9014    0.3034   24.3465 H   0  0  0  0  0  0  0  0  0  0  0  0
   12.4753   -0.4256   23.6931 C   0  0  0  0  0  0  0  0  0  0  0  0
   13.0473   -0.9253   22.9520 H   0  0  0  0  0  0  0  0  0  0  0  0
   10.1839   -1.1179   22.9857 C   0  0  0  0  0  0  0  0  0  0  0  0
   10.0617   -0.5431   21.8531 N   0  0  0  0  0  0  0  0  0  0  0  0
    9.0663    0.2173   21.3562 C   0  0  0  0  0  0  0  0  0  0  0  0
    9.3124    1.3526   21.0249 O   0  0  0  0  0  0  0  0  0  0  0  0
    7.8358   -0.3967   21.1828 N   0  0  0  0  0  0  0  0  0  0  0  0
    7.0187   -0.0001   20.2207 C   0  0  0  0  0  0  0  0  0  0  0  0
    7.5251   -0.4703   18.6362 S   0  0  0  0  0  0  0  0  0  0  0  0
    6.4374    0.2283   17.7624 N   0  5  0  0  0  0  0  0  0  0  0  0
    5.6868    0.7139   17.5613 H   0  0  0  0  0  0  0  0  0  0  0  0
    5.1640    0.9853   19.6980 H   0  0  0  0  0  0  0  0  0  0  0  0
    5.8132    0.5833   20.4562 C   0  0  0  0  0  0  0  0  0  0  0  0
    5.4948    0.6308   21.4721 H   0  0  0  0  0  0  0  0  0  0  0  0
 20 21  1  0  0  0  0
 19 20  1  0  0  0  0
 18 19  1  0  0  0  0
 22 23  1  0  0  0  0
 18 23  2  0  0  0  0
 17 18  1  0  0  0  0
 23 24  1  0  0  0  0
 15 16  2  0  0  0  0
 15 17  1  0  0  0  0
 14 15  1  0  0  0  0
 13 14  2  3  0  0  0
 11 12  1  0  0  0  0
  7 13  1  0  0  0  0
  8 13  1  0  0  0  0
  6  7  1  0  0  0  0
  8 11  2  0  0  0  0
 10 11  1  0  0  0  0
  8  9  1  0  0  0  0
  5  6  3  0  0  0  0
  2  5  1  0  0  0  0
  2  3  1  0  0  0  0
  1  2  1  0  0  0  0
  2  4  1  0  0  0  0
M  CHG  1  20  -1
M  END
> <Shapegauss>
-192.206482

$$$$
