stable:False satoms:20 tatoms:24 sratio:0.8333333333333334
  -OEChem-07092417353D

 24 23  0     0  0  0  0  0  0999 V2000
    7.3679   -4.5564   25.6553 H   0  0  0  0  0  0  0  0  0  0  0  0
    8.4069   -4.1557   25.6048 C   0  0  0  0  0  0  0  0  0  0  0  0
    9.1180   -4.9949   25.4697 H   0  0  0  0  0  0  0  0  0  0  0  0
    8.6182   -3.6976   26.5924 H   0  0  0  0  0  0  0  0  0  0  0  0
    8.5144   -3.2178   24.5666 N   0  0  0  0  0  0  0  0  0  0  0  0
    9.9328   -2.0461   23.1162 C   0  0  0  0  0  0  0  0  0  0  0  0
    9.4458   -3.0236   23.7165 N   0  0  0  0  0  0  0  0  0  0  0  0
   11.3105    0.3377   23.5187 C   0  0  0  0  0  0  0  0  0  0  0  0
   10.0795    0.7263   23.4242 N   0  0  0  0  0  0  0  0  0  0  0  0
   11.9504    1.0987   24.0127 H   0  0  0  0  0  0  0  0  0  0  0  0
   12.0703   -0.7242   23.1757 N   0  0  0  0  0  0  0  0  0  0  0  0
   11.3744   -1.8022   22.9276 C   0  0  0  0  0  0  0  0  0  0  0  0
   11.9204   -2.6488   22.5368 H   0  0  0  0  0  0  0  0  0  0  0  0
    9.1849    0.0607   22.7454 C   0  0  0  0  0  0  0  0  0  0  0  0
    8.9587   -1.1264   22.4874 C   0  0  0  0  0  0  0  0  0  0  0  0
    8.6518    0.4600   20.3731 O   0  0  0  0  0  0  0  0  0  0  0  0
    8.0848   -1.5375   21.9844 H   0  0  0  0  0  0  0  0  0  0  0  0
    6.0411   -0.7014   19.7748 H   0  0  0  0  0  0  0  0  0  0  0  0
    6.4305    0.3098   19.6522 C   0  0  0  0  0  0  0  0  0  0  0  0
    6.9804    0.4002   18.7069 H   0  0  0  0  0  0  0  0  0  0  0  0
    4.9713    1.1727   18.7369 H   0  0  0  0  0  0  0  0  0  0  0  0
    5.3130    1.2300   19.6299 O   0  0  0  0  0  0  0  0  0  0  0  0
    7.5088    0.4824   20.8240 C   0  0  0  0  0  0  0  0  0  0  0  0
    7.3490    0.6639   22.0644 N   0  0  0  0  0  0  0  0  0  0  0  0
 19 20  1  0  0  0  0
 21 22  1  0  0  0  0
 19 22  1  0  0  0  0
 18 19  1  0  0  0  0
 19 23  1  0  0  0  0
 16 23  2  0  0  0  0
 23 24  1  0  0  0  0
 15 17  1  0  0  0  0
 14 15  2  0  0  0  0
  6 15  1  0  0  0  0
 12 13  1  0  0  0  0
  9 14  1  0  0  0  0
  6 12  2  0  0  0  0
 11 12  1  0  0  0  0
  6  7  1  0  0  0  0
  8 11  1  0  0  0  0
  8  9  2  0  0  0  0
  8 10  1  0  0  0  0
  5  7  2  3  0  0  0
  2  5  1  0  0  0  0
  2  3  1  0  0  0  0
  1  2  1  0  0  0  0
  2  4  1  0  0  0  0
M  END
> <Shapegauss>
-160.849899

$$$$
