stable:True satoms:24 tatoms:24 sratio:1.0
  -OEChem-07092417303D

 24 24  0     0  0  0  0  0  0999 V2000
    8.4965   -0.0695   24.5892 C   0  0  0  0  0  0  0  0  0  0  0  0
    7.7267   -3.2473   22.5913 C   0  0  0  0  0  0  0  0  0  0  0  0
    9.8275   -2.1467   21.9323 C   0  0  0  0  0  0  0  0  0  0  0  0
    6.7658   -2.0121   22.2740 C   0  0  0  0  0  0  0  0  0  0  0  0
    8.4120    2.0747   24.7337 H   0  0  0  0  0  0  0  0  0  0  0  0
    7.6081    0.3746   21.9636 C   0  0  0  0  0  0  0  0  0  0  0  0
    7.9145   -0.3304   26.1831 Cl  0  0  0  0  0  0  0  0  0  0  0  0
    7.0692   -0.6998   22.4975 N   0  0  0  0  0  0  0  0  0  0  0  0
    8.2134    1.4057   22.7182 C   0  0  0  0  0  0  0  0  0  0  0  0
   10.0083   -1.3708   23.1958 C   0  0  0  0  0  0  0  0  0  0  0  0
    7.1227   -4.1420   22.3759 H   0  0  0  0  0  0  0  0  0  0  0  0
   10.7756   -2.2284   20.0030 H   0  0  0  0  0  0  0  0  0  0  0  0
    8.9308   -1.1303   23.9860 N   0  0  0  0  0  0  0  0  0  0  0  0
    8.3956    1.2312   24.0653 C   0  0  0  0  0  0  0  0  0  0  0  0
    7.9345   -3.2050   23.6612 H   0  0  0  0  0  0  0  0  0  0  0  0
    7.5192    0.5278   20.9006 H   0  0  0  0  0  0  0  0  0  0  0  0
    8.4846    2.3497   22.2347 H   0  0  0  0  0  0  0  0  0  0  0  0
   10.8691   -1.7079   20.9535 C   0  0  0  0  0  0  0  0  0  0  0  0
   10.7846   -0.6307   20.7689 H   0  0  0  0  0  0  0  0  0  0  0  0
   11.1245   -0.9982   23.5267 O   0  0  0  0  0  0  0  0  0  0  0  0
   11.8659   -1.8717   21.3906 H   0  0  0  0  0  0  0  0  0  0  0  0
    8.9431   -3.1615   21.7819 C   0  0  0  0  0  0  0  0  0  0  0  0
    9.1254   -3.9515   21.0491 H   0  0  0  0  0  0  0  0  0  0  0  0
    5.6667   -2.3499   21.9203 O   0  0  0  0  0  0  0  0  0  0  0  0
 12 18  1  0  0  0  0
 18 19  1  0  0  0  0
  6 16  1  0  0  0  0
 18 21  1  0  0  0  0
  3 18  1  0  0  0  0
 22 23  1  0  0  0  0
  3 22  2  0  0  0  0
  2 22  1  0  0  0  0
  4 24  2  0  0  0  0
  3 10  1  0  0  0  0
  6  8  2  3  0  0  0
  6  9  1  0  0  0  0
  9 17  1  0  0  0  0
  4  8  1  0  0  0  0
  2  4  1  0  0  0  0
  2 11  1  0  0  0  0
  2 15  1  0  0  0  0
  9 14  2  0  0  0  0
 10 20  2  0  0  0  0
 10 13  1  0  0  0  0
  1 13  2  3  0  0  0
  1 14  1  0  0  0  0
  5 14  1  0  0  0  0
  1  7  1  0  0  0  0
M  END
> <Shapegauss>
-110.291817

$$$$
