stable:True satoms:24 tatoms:24 sratio:1.0
  -OEChem-08052417273D

 24 24  0     0  0  0  0  0  0999 V2000
    9.1035   -1.5930   22.7598 C   0  0  0  0  0  0  0  0  0  0  0  0
   10.7527    1.7972   23.4450 C   0  0  0  0  0  0  0  0  0  0  0  0
   12.2599   -0.1218   23.7687 C   0  0  0  0  0  0  0  0  0  0  0  0
    9.6617    1.3570   24.5247 C   0  0  0  0  0  0  0  0  0  0  0  0
    8.1036   -3.3370   23.5242 H   0  0  0  0  0  0  0  0  0  0  0  0
    9.5042   -1.0040   25.4750 C   0  0  0  0  0  0  0  0  0  0  0  0
    7.9855   -1.3529   21.4792 Cl  0  0  0  0  0  0  0  0  0  0  0  0
    9.2604    0.0737   24.7616 N   0  0  0  0  0  0  0  0  0  0  0  0
    9.1939   -2.3150   25.0461 C   0  0  0  0  0  0  0  0  0  0  0  0
   11.4765   -1.0860   22.9395 C   0  0  0  0  0  0  0  0  0  0  0  0
   10.7483    2.8977   23.4665 H   0  0  0  0  0  0  0  0  0  0  0  0
   13.9626   -0.2169   25.0800 H   0  0  0  0  0  0  0  0  0  0  0  0
   10.1602   -0.8457   22.7094 N   0  0  0  0  0  0  0  0  0  0  0  0
    8.7542   -2.5135   23.7633 C   0  0  0  0  0  0  0  0  0  0  0  0
   10.3796    1.4567   22.4783 H   0  0  0  0  0  0  0  0  0  0  0  0
    9.8876   -0.8897   26.4757 H   0  0  0  0  0  0  0  0  0  0  0  0
    9.2579   -3.1501   25.7510 H   0  0  0  0  0  0  0  0  0  0  0  0
   13.3657   -0.8674   24.4446 C   0  0  0  0  0  0  0  0  0  0  0  0
   12.9551   -1.6743   25.0626 H   0  0  0  0  0  0  0  0  0  0  0  0
   12.0334   -2.0544   22.4431 O   0  0  0  0  0  0  0  0  0  0  0  0
   13.9947   -1.3494   23.6808 H   0  0  0  0  0  0  0  0  0  0  0  0
   12.0546    1.2170   23.7774 C   0  0  0  0  0  0  0  0  0  0  0  0
   12.8691    1.9010   24.0285 H   0  0  0  0  0  0  0  0  0  0  0  0
    9.1151    2.2916   25.0490 O   0  0  0  0  0  0  0  0  0  0  0  0
 12 18  1  0  0  0  0
 18 19  1  0  0  0  0
  6 16  1  0  0  0  0
 18 21  1  0  0  0  0
  3 18  1  0  0  0  0
 22 23  1  0  0  0  0
  3 22  2  0  0  0  0
  2 22  1  0  0  0  0
  4 24  2  0  0  0  0
  3 10  1  0  0  0  0
  6  8  2  3  0  0  0
  6  9  1  0  0  0  0
  9 17  1  0  0  0  0
  4  8  1  0  0  0  0
  2  4  1  0  0  0  0
  2 11  1  0  0  0  0
  2 15  1  0  0  0  0
  9 14  2  0  0  0  0
 10 20  2  0  0  0  0
 10 13  1  0  0  0  0
  1 13  2  3  0  0  0
  1 14  1  0  0  0  0
  5 14  1  0  0  0  0
  1  7  1  0  0  0  0
M  END
> <Chemgauss4>
-6.241108

$$$$
