stable:False satoms:20 tatoms:24 sratio:0.8333333333333334
  -OEChem-07092417293D

 24 25  0     0  0  0  0  0  0999 V2000
    9.1432    1.2467   22.2908 N   0  0  0  0  0  0  0  0  0  0  0  0
    8.6644    2.2347   20.3603 N   0  0  0  0  0  0  0  0  0  0  0  0
    7.8553   -3.8857   24.5358 C   0  0  0  0  0  0  0  0  0  0  0  0
    9.2545   -4.7028   20.8251 H   0  0  0  0  0  0  0  0  0  0  0  0
    8.5821   -0.8818   22.6263 O   0  0  0  0  0  0  0  0  0  0  0  0
    7.6073   -4.8875   23.7410 N   0  0  0  0  0  0  0  0  0  0  0  0
    7.6317   -4.0921   25.5735 H   0  0  0  0  0  0  0  0  0  0  0  0
    9.1921    0.4111   24.1587 H   0  0  0  0  0  0  0  0  0  0  0  0
    8.8612   -4.2758   21.7464 C   0  0  0  0  0  0  0  0  0  0  0  0
    8.8660    1.0826   20.9471 C   0  0  0  0  0  0  0  0  0  0  0  0
    8.3179   -5.2859   22.6827 C   0  0  0  0  0  0  0  0  0  0  0  0
    8.8688   -0.0195   20.3156 O   0  0  0  0  0  0  0  0  0  0  0  0
    8.4382   -6.4902   22.4526 O   0  0  0  0  0  0  0  0  0  0  0  0
    8.7174    4.2044   21.0797 H   0  0  0  0  0  0  0  0  0  0  0  0
    8.9873    2.5722   22.5466 C   0  0  0  0  0  0  0  0  0  0  0  0
    8.3661   -1.8733   24.9849 H   0  0  0  0  0  0  0  0  0  0  0  0
    8.3237   -2.6164   24.1931 C   0  0  0  0  0  0  0  0  0  0  0  0
    9.4340    0.1296   23.1340 C   0  0  0  0  0  0  0  0  0  0  0  0
    8.7872    3.1748   21.3367 C   0  0  0  0  0  0  0  0  0  0  0  0
    8.9105   -2.9952   21.8519 N   0  0  0  0  0  0  0  0  0  0  0  0
    8.6059   -0.9319   20.3827 H   0  0  0  0  0  0  0  0  0  0  0  0
   10.4842   -0.1621   23.0833 H   0  0  0  0  0  0  0  0  0  0  0  0
    9.0289    2.9727   23.5373 H   0  0  0  0  0  0  0  0  0  0  0  0
    8.6561   -2.2188   22.9103 C   0  0  0  0  0  0  0  0  0  0  0  0
 12 21  1  0  0  0  0
 10 12  1  0  0  0  0
  2 10  2  0  0  0  0
  2 19  1  0  0  0  0
  4  9  1  0  0  0  0
  1 10  1  0  0  0  0
 14 19  1  0  0  0  0
 15 19  2  0  0  0  0
  9 20  2  0  0  0  0
  9 11  1  0  0  0  0
 20 24  1  0  0  0  0
  1 15  1  0  0  0  0
  1 18  1  0  0  0  0
 11 13  2  0  0  0  0
 15 23  1  0  0  0  0
  5 24  1  0  0  0  0
  5 18  1  0  0  0  0
  6 11  1  0  0  0  0
 17 24  2  0  0  0  0
 18 22  1  0  0  0  0
  8 18  1  0  0  0  0
  3  6  2  0  0  0  0
  3 17  1  0  0  0  0
 16 17  1  0  0  0  0
  3  7  1  0  0  0  0
M  END
> <Shapegauss>
-120.530121

$$$$
