stable:False satoms:20 tatoms:24 sratio:0.8333333333333334
  -OEChem-08052415543D

 24 25  0     0  0  0  0  0  0999 V2000
    6.7159    0.1102   20.1144 N   0  0  0  0  0  0  0  0  0  0  0  0
    7.0767   -0.0201   17.9269 N   0  0  0  0  0  0  0  0  0  0  0  0
   10.0191   -0.7950   24.7307 C   0  0  0  0  0  0  0  0  0  0  0  0
   12.2153    1.6337   22.3489 H   0  0  0  0  0  0  0  0  0  0  0  0
    8.4061   -0.1374   21.5426 O   0  0  0  0  0  0  0  0  0  0  0  0
   11.3099   -0.6507   24.6318 N   0  0  0  0  0  0  0  0  0  0  0  0
    9.7045   -1.2388   25.6653 H   0  0  0  0  0  0  0  0  0  0  0  0
    6.3904   -0.1786   22.1145 H   0  0  0  0  0  0  0  0  0  0  0  0
   11.5039    0.9479   22.8065 C   0  0  0  0  0  0  0  0  0  0  0  0
    7.6326    0.2217   19.0866 C   0  0  0  0  0  0  0  0  0  0  0  0
   11.9784    0.3669   24.0830 C   0  0  0  0  0  0  0  0  0  0  0  0
    8.8454    0.5798   19.2064 O   0  0  0  0  0  0  0  0  0  0  0  0
   13.0283    0.7511   24.6005 O   0  0  0  0  0  0  0  0  0  0  0  0
    5.1072   -0.4994   17.3874 H   0  0  0  0  0  0  0  0  0  0  0  0
    5.5657   -0.3356   19.5442 C   0  0  0  0  0  0  0  0  0  0  0  0
    8.0246   -0.7771   23.9998 H   0  0  0  0  0  0  0  0  0  0  0  0
    9.0472   -0.4834   23.7786 C   0  0  0  0  0  0  0  0  0  0  0  0
    7.0834    0.3645   21.4722 C   0  0  0  0  0  0  0  0  0  0  0  0
    5.7762   -0.3193   18.1942 C   0  0  0  0  0  0  0  0  0  0  0  0
   10.4091    0.7437   22.1636 N   0  0  0  0  0  0  0  0  0  0  0  0
    9.6167    0.4721   19.7538 H   0  0  0  0  0  0  0  0  0  0  0  0
    7.0394    1.4266   21.7186 H   0  0  0  0  0  0  0  0  0  0  0  0
    4.7132   -0.6214   20.1231 H   0  0  0  0  0  0  0  0  0  0  0  0
    9.3059    0.0935   22.5480 C   0  0  0  0  0  0  0  0  0  0  0  0
 12 21  1  0  0  0  0
 10 12  1  0  0  0  0
  2 10  2  0  0  0  0
  2 19  1  0  0  0  0
  4  9  1  0  0  0  0
  1 10  1  0  0  0  0
 14 19  1  0  0  0  0
 15 19  2  0  0  0  0
  9 20  2  0  0  0  0
  9 11  1  0  0  0  0
 20 24  1  0  0  0  0
  1 15  1  0  0  0  0
  1 18  1  0  0  0  0
 11 13  2  0  0  0  0
 15 23  1  0  0  0  0
  5 24  1  0  0  0  0
  5 18  1  0  0  0  0
  6 11  1  0  0  0  0
 17 24  2  0  0  0  0
 18 22  1  0  0  0  0
  8 18  1  0  0  0  0
  3  6  2  0  0  0  0
  3 17  1  0  0  0  0
 16 17  1  0  0  0  0
  3  7  1  0  0  0  0
M  END
> <Chemgauss4>
-6.357370

$$$$
