stable:False satoms:20 tatoms:24 sratio:0.8333333333333334
  -OEChem-08052415543D

 24 25  0     0  0  0  0  0  0999 V2000
   -6.6709    0.0503  -20.4358 N   0  0  0  0  0  0  0  0  0  0  0  0
   -7.0318   -0.0800  -18.2483 N   0  0  0  0  0  0  0  0  0  0  0  0
   -9.9741   -0.8549  -25.0521 C   0  0  0  0  0  0  0  0  0  0  0  0
  -12.1703    1.5738  -22.6703 H   0  0  0  0  0  0  0  0  0  0  0  0
   -8.3611   -0.1973  -21.8640 O   0  0  0  0  0  0  0  0  0  0  0  0
  -11.2649   -0.7106  -24.9532 N   0  0  0  0  0  0  0  0  0  0  0  0
   -9.6595   -1.2987  -25.9867 H   0  0  0  0  0  0  0  0  0  0  0  0
   -6.3454   -0.2385  -22.4359 H   0  0  0  0  0  0  0  0  0  0  0  0
  -11.4589    0.8880  -23.1279 C   0  0  0  0  0  0  0  0  0  0  0  0
   -7.5877    0.1618  -19.4080 C   0  0  0  0  0  0  0  0  0  0  0  0
  -11.9334    0.3070  -24.4044 C   0  0  0  0  0  0  0  0  0  0  0  0
   -8.8005    0.5198  -19.5278 O   0  0  0  0  0  0  0  0  0  0  0  0
  -12.9833    0.6912  -24.9219 O   0  0  0  0  0  0  0  0  0  0  0  0
   -5.0622   -0.5593  -17.7088 H   0  0  0  0  0  0  0  0  0  0  0  0
   -5.5208   -0.3955  -19.8656 C   0  0  0  0  0  0  0  0  0  0  0  0
   -7.9796   -0.8370  -24.3212 H   0  0  0  0  0  0  0  0  0  0  0  0
   -9.0022   -0.5434  -24.1000 C   0  0  0  0  0  0  0  0  0  0  0  0
   -7.0384    0.3046  -21.7936 C   0  0  0  0  0  0  0  0  0  0  0  0
   -5.7313   -0.3793  -18.5156 C   0  0  0  0  0  0  0  0  0  0  0  0
  -10.3642    0.6838  -22.4850 N   0  0  0  0  0  0  0  0  0  0  0  0
   -9.5717    0.4122  -20.0752 H   0  0  0  0  0  0  0  0  0  0  0  0
   -6.9944    1.3666  -22.0400 H   0  0  0  0  0  0  0  0  0  0  0  0
   -4.6682   -0.6813  -20.4445 H   0  0  0  0  0  0  0  0  0  0  0  0
   -9.2609    0.0336  -22.8694 C   0  0  0  0  0  0  0  0  0  0  0  0
 12 21  1  0  0  0  0
 10 12  1  0  0  0  0
  2 10  2  0  0  0  0
  2 19  1  0  0  0  0
  4  9  1  0  0  0  0
  1 10  1  0  0  0  0
 14 19  1  0  0  0  0
 15 19  2  0  0  0  0
  9 20  2  0  0  0  0
  9 11  1  0  0  0  0
 20 24  1  0  0  0  0
  1 15  1  0  0  0  0
  1 18  1  0  0  0  0
 11 13  2  0  0  0  0
 15 23  1  0  0  0  0
  5 24  1  0  0  0  0
  5 18  1  0  0  0  0
  6 11  1  0  0  0  0
 17 24  2  0  0  0  0
 18 22  1  0  0  0  0
  8 18  1  0  0  0  0
  3  6  2  0  0  0  0
  3 17  1  0  0  0  0
 16 17  1  0  0  0  0
  3  7  1  0  0  0  0
M  END
> <Chemgauss4>
-6.581549

$$$$
