stable:False satoms:10 tatoms:24 sratio:0.4166666666666667
  -OEChem-07092417483D

 24 24  0     1  0  0  0  0  0999 V2000
    6.5819   -4.9198   26.4820 C   0  0  0  0  0  0  0  0  0  0  0  0
    8.2167   -4.2974   26.1285 S   0  0  0  0  0  0  0  0  0  0  0  0
    9.0832   -5.4336   26.1050 O   0  0  0  0  0  0  0  0  0  0  0  0
    8.5479   -3.3988   27.1848 O   0  0  0  0  0  0  0  0  0  0  0  0
    8.1038   -3.5572   24.6830 N   0  0  0  0  0  0  0  0  0  0  0  0
    9.0013   -2.9568   24.1390 C   0  0  0  0  0  0  0  0  0  0  0  0
    9.4298   -1.9928   23.4840 C   0  0  0  0  0  0  0  0  0  0  0  0
   10.2902   -1.0683   23.2768 C   0  0  2  0  0  0  0  0  0  0  0  0
   11.0259   -0.0161   24.2776 C   0  0  0  0  0  0  0  0  0  0  0  0
   12.0652    0.2564   24.2070 C   0  0  0  0  0  0  0  0  0  0  0  0
   13.1320   -0.1404   23.4987 C   0  0  0  0  0  0  0  0  0  0  0  0
   12.7105   -1.3239   22.6257 C   0  0  0  0  0  0  0  0  0  0  0  0
   11.8532   -1.7658   22.4717 C   0  0  0  0  0  0  0  0  0  0  0  0
    9.7275   -0.6051   22.3544 C   0  0  0  0  0  0  0  0  0  0  0  0
    9.0533    0.0258   21.3693 C   0  0  0  0  0  0  0  0  0  0  0  0
    9.5393    0.9808   20.9669 O   0  0  0  0  0  0  0  0  0  0  0  0
    7.9258   -0.5745   21.0429 N   0  0  0  0  0  0  0  0  0  0  0  0
    7.2067   -0.1098   20.1687 C   0  0  0  0  0  0  0  0  0  0  0  0
    7.2514   -0.0062   18.8515 C   0  0  0  0  0  0  0  0  0  0  0  0
    6.7826    0.3634   17.7810 N   0  0  0  0  0  0  0  0  0  0  0  0
    5.6606    0.9129   18.2502 C   0  0  0  0  0  0  0  0  0  0  0  0
    5.2685    1.0137   19.4346 C   0  0  0  0  0  0  0  0  0  0  0  0
    5.8045    0.5889   20.5546 C   0  0  0  0  0  0  0  0  0  0  0  0
    5.3223    0.7344   21.9588 C   0  0  0  0  0  0  0  0  0  0  0  0
 20 21  2  0  0  0  0
 19 20  1  0  0  0  0
 21 22  1  0  0  0  0
 18 19  2  0  0  0  0
 22 23  2  0  0  0  0
 18 23  1  0  0  0  0
 17 18  1  0  0  0  0
 23 24  1  0  0  0  0
 15 16  2  0  0  0  0
 15 17  1  0  0  0  0
 14 15  1  0  0  0  0
  8 14  1  0  0  0  0
 12 13  2  0  0  0  0
 11 12  1  0  0  0  0
  7  8  1  0  0  0  0
  8  9  1  0  0  0  0
  6  7  2  3  0  0  0
 10 11  1  0  0  0  0
  5  6  1  0  0  0  0
  9 10  2  0  0  0  0
  2  5  1  0  0  0  0
  2  3  2  0  0  0  0
  1  2  1  0  0  0  0
  2  4  2  0  0  0  0
M  END
> <Shapegauss>
-285.987701

$$$$
