stable:False satoms:10 tatoms:24 sratio:0.4166666666666667
  -OEChem-08062415223D

 47 47  0     1  0  0  0  0  0999 V2000
    6.3082   -5.2438   26.3016 C   0  0  0  0  0  0  0  0  0  0  0  0
    7.9496   -4.5779   26.0842 S   0  0  0  0  0  0  0  0  0  0  0  0
    8.8388   -5.6966   26.0698 O   0  0  0  0  0  0  0  0  0  0  0  0
    8.1924   -3.7208   27.1975 O   0  0  0  0  0  0  0  0  0  0  0  0
    7.9165   -3.7771   24.6673 N   0  0  0  0  0  0  0  0  0  0  0  0
    8.8353   -3.1377   24.2101 C   0  0  0  0  0  0  0  0  0  0  0  0
    9.2860   -2.1385   23.6266 C   0  0  0  0  0  0  0  0  0  0  0  0
   10.1390   -1.1908   23.5165 C   0  0  2  0  0  0  0  0  0  0  0  0
   10.7859   -0.1708   24.6079 C   0  0  0  0  0  0  0  0  0  0  0  0
   11.8218    0.1228   24.6180 C   0  0  0  0  0  0  0  0  0  0  0  0
   12.9406   -0.2238   23.9658 C   0  0  0  0  0  0  0  0  0  0  0  0
   12.6015   -1.3750   23.0171 C   0  0  0  0  0  0  0  0  0  0  0  0
   11.7653   -1.8248   22.7879 C   0  0  0  0  0  0  0  0  0  0  0  0
    9.6286   -0.6976   22.5794 C   0  0  0  0  0  0  0  0  0  0  0  0
    9.0076   -0.0360   21.5796 C   0  0  0  0  0  0  0  0  0  0  0  0
    9.4993    0.9441   21.2514 O   0  0  0  0  0  0  0  0  0  0  0  0
    7.9164   -0.6411   21.1538 N   0  0  0  0  0  0  0  0  0  0  0  0
    7.2468   -0.1512   20.2544 C   0  0  0  0  0  0  0  0  0  0  0  0
    7.3756    0.0108   18.9487 C   0  0  0  0  0  0  0  0  0  0  0  0
    6.9705    0.4187   17.8662 N   0  0  0  0  0  0  0  0  0  0  0  0
    5.8091    0.9273   18.2829 C   0  0  0  0  0  0  0  0  0  0  0  0
    5.3383    0.9692   19.4419 C   0  0  0  0  0  0  0  0  0  0  0  0
    5.8084    0.5051   20.5759 C   0  0  0  0  0  0  0  0  0  0  0  0
    5.2323    0.5804   21.9500 C   0  0  0  0  0  0  0  0  0  0  0  0
    6.2608   -5.8018   27.2484 H   0  0  0  0  0  0  0  0  0  0  0  0
    5.5787   -4.4208   26.3243 H   0  0  0  0  0  0  0  0  0  0  0  0
    6.0730   -5.9193   25.4659 H   0  0  0  0  0  0  0  0  0  0  0  0
    7.1552   -3.1331   24.7428 H   0  0  0  0  0  0  0  0  0  0  0  0
    9.7065   -3.7433   24.4115 H   0  0  0  0  0  0  0  0  0  0  0  0
    8.6217   -1.9981   22.7867 H   0  0  0  0  0  0  0  0  0  0  0  0
   11.0419   -1.6864   23.1301 H   0  0  0  0  0  0  0  0  0  0  0  0
   10.1362    0.2365   25.3684 H   0  0  0  0  0  0  0  0  0  0  0  0
   12.0085    0.9002   25.3441 H   0  0  0  0  0  0  0  0  0  0  0  0
   13.7067   -0.5475   24.6858 H   0  0  0  0  0  0  0  0  0  0  0  0
   13.3176    0.6346   23.3904 H   0  0  0  0  0  0  0  0  0  0  0  0
   13.4604   -1.7705   22.4953 H   0  0  0  0  0  0  0  0  0  0  0  0
   11.7659   -2.6342   22.0729 H   0  0  0  0  0  0  0  0  0  0  0  0
   10.8402   -1.5126   23.2494 H   0  0  0  0  0  0  0  0  0  0  0  0
    9.0381   -1.6052   22.3859 H   0  0  0  0  0  0  0  0  0  0  0  0
   10.5672   -0.7419   22.0075 H   0  0  0  0  0  0  0  0  0  0  0  0
    7.6342   -1.5062   21.5686 H   0  0  0  0  0  0  0  0  0  0  0  0
    8.3224   -0.4543   18.7175 H   0  0  0  0  0  0  0  0  0  0  0  0
    5.1895    1.3634   17.5133 H   0  0  0  0  0  0  0  0  0  0  0  0
    4.3855    1.4713   19.5222 H   0  0  0  0  0  0  0  0  0  0  0  0
    4.6180   -0.3121   22.1399 H   0  0  0  0  0  0  0  0  0  0  0  0
    6.0475    0.6279   22.6870 H   0  0  0  0  0  0  0  0  0  0  0  0
    4.6069    1.4811   22.0364 H   0  0  0  0  0  0  0  0  0  0  0  0
 20 21  2  0  0  0  0
 19 20  1  0  0  0  0
 21 22  1  0  0  0  0
 18 19  2  0  0  0  0
 22 23  2  0  0  0  0
 18 23  1  0  0  0  0
 17 18  1  0  0  0  0
 23 24  1  0  0  0  0
 15 16  2  0  0  0  0
 15 17  1  0  0  0  0
 14 15  1  0  0  0  0
  8 14  1  0  0  0  0
 12 13  2  0  0  0  0
 11 12  1  0  0  0  0
  7  8  1  0  0  0  0
  8  9  1  0  0  0  0
  6  7  2  3  0  0  0
 10 11  1  0  0  0  0
  5  6  1  0  0  0  0
  9 10  2  0  0  0  0
  2  5  1  0  0  0  0
  2  3  2  0  0  0  0
  1  2  1  0  0  0  0
  2  4  2  0  0  0  0
  1 25  1  0  0  0  0
  1 26  1  0  0  0  0
  1 27  1  0  0  0  0
  5 28  1  0  0  0  0
  6 29  1  0  0  0  0
  7 30  1  0  0  0  0
  8 31  1  0  0  0  0
  9 32  1  0  0  0  0
 10 33  1  0  0  0  0
 11 34  1  0  0  0  0
 11 35  1  0  0  0  0
 12 36  1  0  0  0  0
 13 37  1  0  0  0  0
 13 38  1  0  0  0  0
 14 39  1  0  0  0  0
 14 40  1  0  0  0  0
 17 41  1  0  0  0  0
 19 42  1  0  0  0  0
 21 43  1  0  0  0  0
 22 44  1  0  0  0  0
 24 45  1  0  0  0  0
 24 46  1  0  0  0  0
 24 47  1  0  0  0  0
M  END
> <Chemgauss4>
-13.257522

$$$$
