stable:False satoms:10 tatoms:24 sratio:0.4166666666666667
  -OEChem-08062415223D

 47 47  0     1  0  0  0  0  0999 V2000
   -6.7119   -5.2972  -26.3070 C   0  0  0  0  0  0  0  0  0  0  0  0
   -8.3314   -4.5872  -26.0664 S   0  0  0  0  0  0  0  0  0  0  0  0
   -9.2502   -5.6815  -26.0382 O   0  0  0  0  0  0  0  0  0  0  0  0
   -8.5672   -3.7243  -27.1767 O   0  0  0  0  0  0  0  0  0  0  0  0
   -8.2562   -3.7869  -24.6507 N   0  0  0  0  0  0  0  0  0  0  0  0
   -9.1507   -3.1228  -24.1808 C   0  0  0  0  0  0  0  0  0  0  0  0
   -9.5658   -2.1116  -23.5917 C   0  0  0  0  0  0  0  0  0  0  0  0
  -10.3913   -1.1412  -23.4701 C   0  0  2  0  0  0  0  0  0  0  0  0
  -11.0263   -0.1046  -24.5527 C   0  0  0  0  0  0  0  0  0  0  0  0
  -12.0539    0.2168  -24.5481 C   0  0  0  0  0  0  0  0  0  0  0  0
  -13.1721   -0.0992  -23.8795 C   0  0  0  0  0  0  0  0  0  0  0  0
  -12.8503   -1.2588  -22.9348 C   0  0  0  0  0  0  0  0  0  0  0  0
  -12.0234   -1.7308  -22.7174 C   0  0  0  0  0  0  0  0  0  0  0  0
   -9.8542   -0.6615  -22.5408 C   0  0  0  0  0  0  0  0  0  0  0  0
   -9.2012   -0.0165  -21.5506 C   0  0  0  0  0  0  0  0  0  0  0  0
   -9.6615    0.9767  -21.2161 O   0  0  0  0  0  0  0  0  0  0  0  0
   -8.1207   -0.6506  -21.1402 N   0  0  0  0  0  0  0  0  0  0  0  0
   -7.4251   -0.1786  -20.2511 C   0  0  0  0  0  0  0  0  0  0  0  0
   -7.5305   -0.0125  -18.9437 C   0  0  0  0  0  0  0  0  0  0  0  0
   -7.0989    0.3848  -17.8675 N   0  0  0  0  0  0  0  0  0  0  0  0
   -5.9304    0.8617  -18.3015 C   0  0  0  0  0  0  0  0  0  0  0  0
   -5.4755    0.8903  -19.4672 C   0  0  0  0  0  0  0  0  0  0  0  0
   -5.9743    0.4386  -20.5939 C   0  0  0  0  0  0  0  0  0  0  0  0
   -5.4165    0.4977  -21.9762 C   0  0  0  0  0  0  0  0  0  0  0  0
   -6.6933   -5.8567  -27.2539 H   0  0  0  0  0  0  0  0  0  0  0  0
   -5.9610   -4.4942  -26.3410 H   0  0  0  0  0  0  0  0  0  0  0  0
   -6.4829   -5.9784  -25.4743 H   0  0  0  0  0  0  0  0  0  0  0  0
   -7.4790   -3.1638  -24.7378 H   0  0  0  0  0  0  0  0  0  0  0  0
  -10.0408   -3.7048  -24.3691 H   0  0  0  0  0  0  0  0  0  0  0  0
   -8.8859   -1.9888  -22.7616 H   0  0  0  0  0  0  0  0  0  0  0  0
  -11.3015   -1.6121  -23.0702 H   0  0  0  0  0  0  0  0  0  0  0  0
  -10.3769    0.2847  -25.3229 H   0  0  0  0  0  0  0  0  0  0  0  0
  -12.2301    0.9987  -25.2720 H   0  0  0  0  0  0  0  0  0  0  0  0
  -13.9569   -0.4024  -24.5880 H   0  0  0  0  0  0  0  0  0  0  0  0
  -13.5174    0.7693  -23.2993 H   0  0  0  0  0  0  0  0  0  0  0  0
  -13.7119   -1.6307  -22.4003 H   0  0  0  0  0  0  0  0  0  0  0  0
  -12.0354   -2.5396  -22.0018 H   0  0  0  0  0  0  0  0  0  0  0  0
  -11.0969   -1.4439  -23.1925 H   0  0  0  0  0  0  0  0  0  0  0  0
   -9.2857   -1.5847  -22.3551 H   0  0  0  0  0  0  0  0  0  0  0  0
  -10.7853   -0.6803  -21.9553 H   0  0  0  0  0  0  0  0  0  0  0  0
   -7.8679   -1.5231  -21.5584 H   0  0  0  0  0  0  0  0  0  0  0  0
   -8.4861   -0.4519  -18.6984 H   0  0  0  0  0  0  0  0  0  0  0  0
   -5.2882    1.2812  -17.5413 H   0  0  0  0  0  0  0  0  0  0  0  0
   -4.5108    1.3666  -19.5617 H   0  0  0  0  0  0  0  0  0  0  0  0
   -4.8292   -0.4110  -22.1743 H   0  0  0  0  0  0  0  0  0  0  0  0
   -6.2406    0.5669  -22.7014 H   0  0  0  0  0  0  0  0  0  0  0  0
   -4.7683    1.3812  -22.0724 H   0  0  0  0  0  0  0  0  0  0  0  0
 20 21  2  0  0  0  0
 19 20  1  0  0  0  0
 21 22  1  0  0  0  0
 18 19  2  0  0  0  0
 22 23  2  0  0  0  0
 18 23  1  0  0  0  0
 17 18  1  0  0  0  0
 23 24  1  0  0  0  0
 15 16  2  0  0  0  0
 15 17  1  0  0  0  0
 14 15  1  0  0  0  0
  8 14  1  0  0  0  0
 12 13  2  0  0  0  0
 11 12  1  0  0  0  0
  7  8  1  0  0  0  0
  8  9  1  0  0  0  0
  6  7  2  3  0  0  0
 10 11  1  0  0  0  0
  5  6  1  0  0  0  0
  9 10  2  0  0  0  0
  2  5  1  0  0  0  0
  2  3  2  0  0  0  0
  1  2  1  0  0  0  0
  2  4  2  0  0  0  0
  1 25  1  0  0  0  0
  1 26  1  0  0  0  0
  1 27  1  0  0  0  0
  5 28  1  0  0  0  0
  6 29  1  0  0  0  0
  7 30  1  0  0  0  0
  8 31  1  0  0  0  0
  9 32  1  0  0  0  0
 10 33  1  0  0  0  0
 11 34  1  0  0  0  0
 11 35  1  0  0  0  0
 12 36  1  0  0  0  0
 13 37  1  0  0  0  0
 13 38  1  0  0  0  0
 14 39  1  0  0  0  0
 14 40  1  0  0  0  0
 17 41  1  0  0  0  0
 19 42  1  0  0  0  0
 21 43  1  0  0  0  0
 22 44  1  0  0  0  0
 24 45  1  0  0  0  0
 24 46  1  0  0  0  0
 24 47  1  0  0  0  0
M  END
> <Chemgauss4>
-12.864887

$$$$
