stable:False satoms:22 tatoms:24 sratio:0.9166666666666666
  -OEChem-08052423113D

 29 30  0     1  0  0  0  0  0999 V2000
    7.0853   -6.3808   21.2863 H   0  0  0  0  0  0  0  0  0  0  0  0
    6.9460   -5.7756   22.1985 C   0  0  0  0  0  0  0  0  0  0  0  0
    5.6857   -5.8302   22.8416 C   0  0  0  0  0  0  0  0  0  0  0  0
    4.7142   -6.4354   22.4352 O   0  0  0  0  0  0  0  0  0  0  0  0
    7.8880   -5.0185   22.6397 N   0  0  0  0  0  0  0  0  0  0  0  0
    8.7876   -3.1525   23.9039 C   0  0  0  0  0  0  0  0  0  0  0  0
    7.8366   -4.1546   23.7540 C   0  0  0  0  0  0  0  0  0  0  0  0
    6.7487   -4.3052   24.6577 C   0  0  0  0  0  0  0  0  0  0  0  0
    4.7039   -4.6077   24.4184 H   0  0  0  0  0  0  0  0  0  0  0  0
    6.2476   -2.9681   26.2669 H   0  0  0  0  0  0  0  0  0  0  0  0
    5.8818   -4.6313   26.6297 H   0  0  0  0  0  0  0  0  0  0  0  0
    7.5699   -4.1313   26.6411 H   0  0  0  0  0  0  0  0  0  0  0  0
    6.6201   -3.9808   26.1348 C   0  0  0  0  0  0  0  0  0  0  0  0
    5.6892   -4.8386   24.0333 C   0  0  0  0  0  0  0  0  0  0  0  0
    8.3655   -1.9757   25.7561 H   0  0  0  0  0  0  0  0  0  0  0  0
    8.7545   -2.0371   24.7651 C   0  0  0  0  0  0  0  0  0  0  0  0
    9.9769   -2.8868   23.2675 N   0  0  0  0  0  0  0  0  0  0  0  0
    9.3659   -1.0206   24.1934 N   0  3  0  0  0  0  0  0  0  0  0  0
   10.3589   -1.5885   23.6031 C   0  0  3  0  0  0  0  0  0  0  0  0
   11.4555   -0.8161   23.5527 O   0  0  0  0  0  0  0  0  0  0  0  0
   12.4044   -1.0144   21.7994 H   0  0  0  0  0  0  0  0  0  0  0  0
   11.9944    0.6401   22.1943 H   0  0  0  0  0  0  0  0  0  0  0  0
   11.6109   -0.3945   22.2181 C   0  0  0  0  0  0  0  0  0  0  0  0
   10.6875   -0.4462   21.6173 H   0  0  0  0  0  0  0  0  0  0  0  0
    3.9917   -6.3188   23.0409 H   0  0  0  0  0  0  0  0  0  0  0  0
    9.8570   -2.9610   22.2774 H   0  0  0  0  0  0  0  0  0  0  0  0
    9.6805   -0.3590   24.8741 H   0  0  0  0  0  0  0  0  0  0  0  0
   10.0224   -1.2135   22.6253 H   0  0  0  0  0  0  0  0  0  0  0  0
    8.7679   -0.5630   23.5353 H   0  0  0  0  0  0  0  0  0  0  0  0
 22 23  1  0  0  0  0
 21 23  1  0  0  0  0
 20 23  1  0  0  0  0
 19 20  1  0  0  0  0
 23 24  1  0  0  0  0
 18 19  1  0  0  0  0
 17 19  1  0  0  0  0
 16 18  1  0  0  0  0
  6 17  1  0  0  0  0
 15 16  1  0  0  0  0
  6 16  2  0  0  0  0
  6  7  1  0  0  0  0
 12 13  1  0  0  0  0
  5  7  2  0  0  0  0
  7  8  1  0  0  0  0
 10 13  1  0  0  0  0
  8 13  1  0  0  0  0
 11 13  1  0  0  0  0
  2  5  1  0  0  0  0
  8 14  2  0  0  0  0
  1  2  1  0  0  0  0
  2  3  2  0  0  0  0
  3 14  1  0  0  0  0
  9 14  1  0  0  0  0
  3  4  1  0  0  0  0
  4 25  1  0  0  0  0
 17 26  1  0  0  0  0
 18 27  1  0  0  0  0
 19 28  1  0  0  0  0
 18 29  1  0  0  0  0
M  CHG  1  18   1
M  END
> <Chemgauss4>
-6.531626

$$$$
