stable:False satoms:22 tatoms:24 sratio:0.9166666666666666
  -OEChem-08052423113D

 29 30  0     1  0  0  0  0  0999 V2000
   -7.1190   -6.4811  -20.9875 H   0  0  0  0  0  0  0  0  0  0  0  0
   -6.9797   -5.8759  -21.8996 C   0  0  0  0  0  0  0  0  0  0  0  0
   -5.7194   -5.9305  -22.5428 C   0  0  0  0  0  0  0  0  0  0  0  0
   -4.7479   -6.5356  -22.1363 O   0  0  0  0  0  0  0  0  0  0  0  0
   -7.9217   -5.1188  -22.3409 N   0  0  0  0  0  0  0  0  0  0  0  0
   -8.8213   -3.2527  -23.6050 C   0  0  0  0  0  0  0  0  0  0  0  0
   -7.8703   -4.2549  -23.4551 C   0  0  0  0  0  0  0  0  0  0  0  0
   -6.7824   -4.4054  -24.3589 C   0  0  0  0  0  0  0  0  0  0  0  0
   -4.7376   -4.7080  -24.1196 H   0  0  0  0  0  0  0  0  0  0  0  0
   -6.2813   -3.0684  -25.9681 H   0  0  0  0  0  0  0  0  0  0  0  0
   -5.9155   -4.7315  -26.3308 H   0  0  0  0  0  0  0  0  0  0  0  0
   -7.6036   -4.2316  -26.3423 H   0  0  0  0  0  0  0  0  0  0  0  0
   -6.6538   -4.0811  -25.8359 C   0  0  0  0  0  0  0  0  0  0  0  0
   -5.7229   -4.9388  -23.7344 C   0  0  0  0  0  0  0  0  0  0  0  0
   -8.3992   -2.0760  -25.4573 H   0  0  0  0  0  0  0  0  0  0  0  0
   -8.7882   -2.1373  -24.4663 C   0  0  0  0  0  0  0  0  0  0  0  0
  -10.0106   -2.9871  -22.9686 N   0  0  0  0  0  0  0  0  0  0  0  0
   -9.3996   -1.1208  -23.8946 N   0  3  0  0  0  0  0  0  0  0  0  0
  -10.3926   -1.6888  -23.3043 C   0  0  3  0  0  0  0  0  0  0  0  0
  -11.4892   -0.9163  -23.2539 O   0  0  0  0  0  0  0  0  0  0  0  0
  -12.4381   -1.1147  -21.5005 H   0  0  0  0  0  0  0  0  0  0  0  0
  -12.0281    0.5399  -21.8955 H   0  0  0  0  0  0  0  0  0  0  0  0
  -11.6446   -0.4947  -21.9193 C   0  0  0  0  0  0  0  0  0  0  0  0
  -10.7212   -0.5465  -21.3184 H   0  0  0  0  0  0  0  0  0  0  0  0
   -4.0254   -6.4191  -22.7420 H   0  0  0  0  0  0  0  0  0  0  0  0
   -9.8907   -3.0612  -21.9786 H   0  0  0  0  0  0  0  0  0  0  0  0
   -9.7142   -0.4592  -24.5752 H   0  0  0  0  0  0  0  0  0  0  0  0
  -10.0561   -1.3138  -22.3265 H   0  0  0  0  0  0  0  0  0  0  0  0
   -8.8016   -0.6633  -23.2364 H   0  0  0  0  0  0  0  0  0  0  0  0
 22 23  1  0  0  0  0
 21 23  1  0  0  0  0
 20 23  1  0  0  0  0
 19 20  1  0  0  0  0
 23 24  1  0  0  0  0
 18 19  1  0  0  0  0
 17 19  1  0  0  0  0
 16 18  1  0  0  0  0
  6 17  1  0  0  0  0
 15 16  1  0  0  0  0
  6 16  2  0  0  0  0
  6  7  1  0  0  0  0
 12 13  1  0  0  0  0
  5  7  2  0  0  0  0
  7  8  1  0  0  0  0
 10 13  1  0  0  0  0
  8 13  1  0  0  0  0
 11 13  1  0  0  0  0
  2  5  1  0  0  0  0
  8 14  2  0  0  0  0
  1  2  1  0  0  0  0
  2  3  2  0  0  0  0
  3 14  1  0  0  0  0
  9 14  1  0  0  0  0
  3  4  1  0  0  0  0
  4 25  1  0  0  0  0
 17 26  1  0  0  0  0
 18 27  1  0  0  0  0
 19 28  1  0  0  0  0
 18 29  1  0  0  0  0
M  CHG  1  18   1
M  END
> <Chemgauss4>
-6.690448

$$$$
