stable:False satoms:8 tatoms:24 sratio:0.3333333333333333
  -OEChem-08062411593D

 35 37  0     1  0  0  0  0  0999 V2000
   -6.2185   -5.0522  -25.9329 Cl  0  0  0  0  0  0  0  0  0  0  0  0
   -8.0283   -4.4873  -25.8885 S   0  0  0  0  0  0  0  0  0  0  0  0
   -8.8381   -5.6841  -25.8729 O   0  0  0  0  0  0  0  0  0  0  0  0
   -8.2188   -3.6254  -27.0294 O   0  0  0  0  0  0  0  0  0  0  0  0
   -8.1627   -3.7040  -24.5095 N   0  0  0  0  0  0  0  0  0  0  0  0
   -8.8779   -2.8925  -24.1131 C   0  0  0  0  0  0  0  0  0  0  0  0
   -9.5031   -1.9562  -23.6009 C   0  0  0  0  0  0  0  0  0  0  0  0
  -10.6558   -1.2223  -23.4475 C   0  0  1  0  0  0  0  0  0  0  0  0
  -11.2823   -0.2916  -24.5317 C   0  0  0  0  0  0  0  0  0  0  0  0
  -12.3194   -0.0050  -24.5827 C   0  0  0  0  0  0  0  0  0  0  0  0
  -13.2040   -0.4715  -23.9008 C   0  0  0  0  0  0  0  0  0  0  0  0
  -13.0694   -1.4499  -23.0713 N   0  0  0  0  0  0  0  0  0  0  0  0
  -12.0192   -1.6885  -22.9859 C   0  0  0  0  0  0  0  0  0  0  0  0
   -9.7702   -0.7695  -22.7139 C   0  0  3  0  0  0  0  0  0  0  0  0
   -9.2990    0.1001  -21.6443 C   0  0  0  0  0  0  0  0  0  0  0  0
   -9.9284    1.0609  -21.3043 O   0  0  0  0  0  0  0  0  0  0  0  0
   -8.1848   -0.4286  -21.1971 N   0  0  0  0  0  0  0  0  0  0  0  0
   -7.5321    0.1002  -20.2000 C   0  0  0  0  0  0  0  0  0  0  0  0
   -7.9908    0.1626  -18.9569 N   0  0  0  0  0  0  0  0  0  0  0  0
   -7.3955    0.5419  -17.9180 N   0  0  0  0  0  0  0  0  0  0  0  0
   -6.4064    0.9491  -18.3447 C   0  0  0  0  0  0  0  0  0  0  0  0
   -5.7562    1.0463  -19.3337 C   0  0  0  0  0  0  0  0  0  0  0  0
   -6.2103    0.6551  -20.4293 C   0  0  0  0  0  0  0  0  0  0  0  0
   -5.7471    0.6782  -21.4241 H   0  0  0  0  0  0  0  0  0  0  0  0
   -7.2624   -3.2820  -24.4022 H   0  0  0  0  0  0  0  0  0  0  0  0
   -9.7381   -3.2844  -24.6355 H   0  0  0  0  0  0  0  0  0  0  0  0
  -10.6224    0.0970  -25.2932 H   0  0  0  0  0  0  0  0  0  0  0  0
  -12.5909    0.7576  -25.2975 H   0  0  0  0  0  0  0  0  0  0  0  0
  -14.1863   -0.0326  -23.9947 H   0  0  0  0  0  0  0  0  0  0  0  0
  -11.8884   -1.6673  -21.8939 H   0  0  0  0  0  0  0  0  0  0  0  0
  -12.0128   -2.7313  -23.3358 H   0  0  0  0  0  0  0  0  0  0  0  0
   -9.4261   -0.0674  -23.4877 H   0  0  0  0  0  0  0  0  0  0  0  0
   -7.8279   -1.2559  -21.6309 H   0  0  0  0  0  0  0  0  0  0  0  0
   -5.8642    1.4224  -17.5395 H   0  0  0  0  0  0  0  0  0  0  0  0
   -4.7663    1.4755  -19.2853 H   0  0  0  0  0  0  0  0  0  0  0  0
 20 21  2  0  0  0  0
 19 20  1  0  0  0  0
 21 22  1  0  0  0  0
 18 19  2  0  0  0  0
 22 23  2  0  0  0  0
 18 23  1  0  0  0  0
 17 18  1  0  0  0  0
 23 24  1  0  0  0  0
 15 16  2  0  0  0  0
 15 17  1  0  0  0  0
 14 15  1  0  0  0  0
  8 14  1  0  0  0  0
  7 14  1  0  0  0  0
 12 13  1  0  0  0  0
 11 12  2  0  0  0  0
  8 13  1  0  0  0  0
  7  8  1  0  0  0  0
  8  9  1  0  0  0  0
 10 11  1  0  0  0  0
  6  7  2  0  0  0  0
  9 10  2  0  0  0  0
  5  6  1  0  0  0  0
  2  5  1  0  0  0  0
  2  3  2  0  0  0  0
  1  2  1  0  0  0  0
  2  4  2  0  0  0  0
  5 25  1  0  0  0  0
  6 26  1  0  0  0  0
  9 27  1  0  0  0  0
 10 28  1  0  0  0  0
 11 29  1  0  0  0  0
 13 30  1  0  0  0  0
 13 31  1  0  0  0  0
 14 32  1  0  0  0  0
 17 33  1  0  0  0  0
 21 34  1  0  0  0  0
 22 35  1  0  0  0  0
M  END
> <Chemgauss4>
-13.081865

$$$$
