stable:False satoms:8 tatoms:24 sratio:0.3333333333333333
  -OEChem-08062411593D

 35 37  0     1  0  0  0  0  0999 V2000
    6.3941   -5.1891   25.8952 Cl  0  0  0  0  0  0  0  0  0  0  0  0
    8.2039   -4.6243   25.8508 S   0  0  0  0  0  0  0  0  0  0  0  0
    9.0136   -5.8210   25.8351 O   0  0  0  0  0  0  0  0  0  0  0  0
    8.3944   -3.7624   26.9916 O   0  0  0  0  0  0  0  0  0  0  0  0
    8.3382   -3.8410   24.4717 N   0  0  0  0  0  0  0  0  0  0  0  0
    9.0535   -3.0295   24.0754 C   0  0  0  0  0  0  0  0  0  0  0  0
    9.6787   -2.0932   23.5632 C   0  0  0  0  0  0  0  0  0  0  0  0
   10.8314   -1.3593   23.4097 C   0  0  1  0  0  0  0  0  0  0  0  0
   11.4579   -0.4286   24.4939 C   0  0  0  0  0  0  0  0  0  0  0  0
   12.4949   -0.1420   24.5449 C   0  0  0  0  0  0  0  0  0  0  0  0
   13.3796   -0.6085   23.8631 C   0  0  0  0  0  0  0  0  0  0  0  0
   13.2449   -1.5869   23.0336 N   0  0  0  0  0  0  0  0  0  0  0  0
   12.1947   -1.8254   22.9482 C   0  0  0  0  0  0  0  0  0  0  0  0
    9.9457   -0.9065   22.6762 C   0  0  3  0  0  0  0  0  0  0  0  0
    9.4746   -0.0369   21.6066 C   0  0  0  0  0  0  0  0  0  0  0  0
   10.1039    0.9240   21.2666 O   0  0  0  0  0  0  0  0  0  0  0  0
    8.3603   -0.5655   21.1594 N   0  0  0  0  0  0  0  0  0  0  0  0
    7.7076   -0.0368   20.1622 C   0  0  0  0  0  0  0  0  0  0  0  0
    8.1664    0.0256   18.9192 N   0  0  0  0  0  0  0  0  0  0  0  0
    7.5711    0.4049   17.8803 N   0  0  0  0  0  0  0  0  0  0  0  0
    6.5820    0.8121   18.3069 C   0  0  0  0  0  0  0  0  0  0  0  0
    5.9318    0.9093   19.2959 C   0  0  0  0  0  0  0  0  0  0  0  0
    6.3859    0.5181   20.3916 C   0  0  0  0  0  0  0  0  0  0  0  0
    5.9226    0.5413   21.3863 H   0  0  0  0  0  0  0  0  0  0  0  0
    7.4380   -3.4190   24.3644 H   0  0  0  0  0  0  0  0  0  0  0  0
    9.9136   -3.4214   24.5978 H   0  0  0  0  0  0  0  0  0  0  0  0
   10.7979   -0.0400   25.2554 H   0  0  0  0  0  0  0  0  0  0  0  0
   12.7665    0.6207   25.2598 H   0  0  0  0  0  0  0  0  0  0  0  0
   14.3619   -0.1696   23.9570 H   0  0  0  0  0  0  0  0  0  0  0  0
   12.0640   -1.8043   21.8562 H   0  0  0  0  0  0  0  0  0  0  0  0
   12.1883   -2.8683   23.2981 H   0  0  0  0  0  0  0  0  0  0  0  0
    9.6017   -0.2044   23.4499 H   0  0  0  0  0  0  0  0  0  0  0  0
    8.0034   -1.3929   21.5932 H   0  0  0  0  0  0  0  0  0  0  0  0
    6.0397    1.2855   17.5018 H   0  0  0  0  0  0  0  0  0  0  0  0
    4.9419    1.3385   19.2476 H   0  0  0  0  0  0  0  0  0  0  0  0
 20 21  2  0  0  0  0
 19 20  1  0  0  0  0
 21 22  1  0  0  0  0
 18 19  2  0  0  0  0
 22 23  2  0  0  0  0
 18 23  1  0  0  0  0
 17 18  1  0  0  0  0
 23 24  1  0  0  0  0
 15 16  2  0  0  0  0
 15 17  1  0  0  0  0
 14 15  1  0  0  0  0
  8 14  1  0  0  0  0
  7 14  1  0  0  0  0
 12 13  1  0  0  0  0
 11 12  2  0  0  0  0
  8 13  1  0  0  0  0
  7  8  1  0  0  0  0
  8  9  1  0  0  0  0
 10 11  1  0  0  0  0
  6  7  2  0  0  0  0
  9 10  2  0  0  0  0
  5  6  1  0  0  0  0
  2  5  1  0  0  0  0
  2  3  2  0  0  0  0
  1  2  1  0  0  0  0
  2  4  2  0  0  0  0
  5 25  1  0  0  0  0
  6 26  1  0  0  0  0
  9 27  1  0  0  0  0
 10 28  1  0  0  0  0
 11 29  1  0  0  0  0
 13 30  1  0  0  0  0
 13 31  1  0  0  0  0
 14 32  1  0  0  0  0
 17 33  1  0  0  0  0
 21 34  1  0  0  0  0
 22 35  1  0  0  0  0
M  END
> <Chemgauss4>
-13.158181

$$$$
