stable:False satoms:15 tatoms:24 sratio:0.625
  -OEChem-07092417413D

 24 24  0     1  0  0  0  0  0999 V2000
    6.4863   -4.9151   26.5135 Cl  0  0  0  0  0  0  0  0  0  0  0  0
    8.3114   -4.3754   26.1754 S   0  0  0  0  0  0  0  0  0  0  0  0
    9.1229   -5.5648   26.1856 O   0  0  0  0  0  0  0  0  0  0  0  0
    8.6592   -3.3877   27.1217 O   0  0  0  0  0  0  0  0  0  0  0  0
    8.1554   -3.7471   24.6629 N   0  0  0  0  0  0  0  0  0  0  0  0
    8.9408   -2.9825   24.1786 C   0  0  0  0  0  0  0  0  0  0  0  0
    9.5285   -2.1557   23.6787 C   0  0  0  0  0  0  0  0  0  0  0  0
   10.4037   -1.1290   23.3185 C   0  0  1  0  0  0  0  0  0  0  0  0
   10.5656   -0.5062   24.2546 H   0  0  0  0  0  0  0  0  0  0  0  0
   12.5239    0.3929   24.2306 H   0  0  0  0  0  0  0  0  0  0  0  0
   12.8039   -0.2521   23.5712 C   0  5  0  0  0  0  0  0  0  0  0  0
   12.5153   -1.1166   22.9940 C   0  0  0  0  0  0  0  0  0  0  0  0
   11.6041   -1.7285   22.8065 C   0  0  0  0  0  0  0  0  0  0  0  0
    9.8914   -0.4275   22.2803 C   0  0  0  0  0  0  0  0  0  0  0  0
    9.1327    0.1912   21.3762 C   0  0  0  0  0  0  0  0  0  0  0  0
    9.5289    1.1702   20.8022 O   0  0  0  0  0  0  0  0  0  0  0  0
    7.9182   -0.3913   21.2331 N   0  0  0  0  0  0  0  0  0  0  0  0
    7.1312    0.0813   20.2663 C   0  0  0  0  0  0  0  0  0  0  0  0
    7.2934    0.0998   18.9603 C   0  0  0  0  0  0  0  0  0  0  0  0
    6.4926    0.4525   17.1031 N   0  0  0  0  0  0  0  0  0  0  0  0
    6.2950    0.5839   18.1683 C   0  0  0  0  0  0  0  0  0  0  0  0
    5.0018    1.1994   19.2950 S   0  0  0  0  0  0  0  0  0  0  0  0
    5.8416    0.6160   20.5553 C   0  0  0  0  0  0  0  0  0  0  0  0
    5.4362    0.6021   21.5649 H   0  0  0  0  0  0  0  0  0  0  0  0
 20 21  1  0  0  0  0
 19 21  2  0  0  0  0
 21 22  1  0  0  0  0
 18 19  1  0  0  0  0
 22 23  1  0  0  0  0
 18 23  2  0  0  0  0
 17 18  1  0  0  0  0
 23 24  1  0  0  0  0
 15 16  2  0  0  0  0
 15 17  1  0  0  0  0
 14 15  1  0  0  0  0
  8 14  1  0  0  0  0
 12 13  1  0  0  0  0
  8 13  1  0  0  0  0
 11 12  2  0  0  0  0
  7  8  1  0  0  0  0
  8  9  1  0  0  0  0
 10 11  1  0  0  0  0
  6  7  3  0  0  0  0
  5  6  1  0  0  0  0
  2  5  1  0  0  0  0
  2  3  2  0  0  0  0
  1  2  1  0  0  0  0
  2  4  2  0  0  0  0
M  CHG  1  11  -1
M  END
> <Shapegauss>
-259.042023

$$$$
