stable:False satoms:15 tatoms:24 sratio:0.625
  -OEChem-08062411383D

 35 35  0     1  0  0  0  0  0999 V2000
    6.5476   -5.5797   25.7656 Cl  0  0  0  0  0  0  0  0  0  0  0  0
    8.3548   -4.9535   25.4856 S   0  0  0  0  0  0  0  0  0  0  0  0
    9.1962   -6.1128   25.3388 O   0  0  0  0  0  0  0  0  0  0  0  0
    8.6875   -4.0850   26.5472 O   0  0  0  0  0  0  0  0  0  0  0  0
    8.1671   -4.1428   24.0664 N   0  0  0  0  0  0  0  0  0  0  0  0
    8.9278   -3.3025   23.6775 C   0  0  0  0  0  0  0  0  0  0  0  0
    9.4891   -2.4037   23.2824 C   0  0  0  0  0  0  0  0  0  0  0  0
   10.3342   -1.3169   23.0493 C   0  0  1  0  0  0  0  0  0  0  0  0
   10.4902   -0.8138   24.0557 H   0  0  0  0  0  0  0  0  0  0  0  0
   11.9798   -0.0131   24.0758 H   0  0  0  0  0  0  0  0  0  0  0  0
   12.7140   -0.4160   23.3940 C   0  0  0  0  0  0  0  0  0  0  0  0
   12.4413   -1.2077   22.7138 C   0  0  0  0  0  0  0  0  0  0  0  0
   11.5440   -1.8147   22.4566 C   0  0  0  0  0  0  0  0  0  0  0  0
    9.7935   -0.5032   22.1124 C   0  0  0  0  0  0  0  0  0  0  0  0
    9.0099    0.2049   21.2997 C   0  0  0  0  0  0  0  0  0  0  0  0
    9.3752    1.2589   20.8519 O   0  0  0  0  0  0  0  0  0  0  0  0
    7.8091   -0.3866   21.0925 N   0  0  0  0  0  0  0  0  0  0  0  0
    7.0003    0.1839   20.1993 C   0  0  0  0  0  0  0  0  0  0  0  0
    7.1482    0.3721   18.9051 C   0  0  0  0  0  0  0  0  0  0  0  0
    6.3193    0.9362   17.1136 N   0  0  0  0  0  0  0  0  0  0  0  0
    6.1296    0.9262   18.1883 C   0  0  0  0  0  0  0  0  0  0  0  0
    4.8332    1.3595   19.3933 S   0  0  0  0  0  0  0  0  0  0  0  0
    5.7007    0.6433   20.5632 C   0  0  0  0  0  0  0  0  0  0  0  0
    5.3064    0.4908   21.5658 H   0  0  0  0  0  0  0  0  0  0  0  0
    7.2737   -3.6972   24.1227 H   0  0  0  0  0  0  0  0  0  0  0  0
   13.7213   -0.0265   23.3932 H   0  0  0  0  0  0  0  0  0  0  0  0
   13.2851   -1.4955   22.1041 H   0  0  0  0  0  0  0  0  0  0  0  0
   11.4233   -1.8142   21.3633 H   0  0  0  0  0  0  0  0  0  0  0  0
   11.7067   -2.8446   22.8071 H   0  0  0  0  0  0  0  0  0  0  0  0
   10.3397   -0.9788   21.2844 H   0  0  0  0  0  0  0  0  0  0  0  0
   10.3497    0.3803   22.4590 H   0  0  0  0  0  0  0  0  0  0  0  0
    7.5414   -1.2135   21.5870 H   0  0  0  0  0  0  0  0  0  0  0  0
    8.0685    0.0901   18.4153 H   0  0  0  0  0  0  0  0  0  0  0  0
    5.5203    1.3029   16.6370 H   0  0  0  0  0  0  0  0  0  0  0  0
    7.1148    1.5107   16.9210 H   0  0  0  0  0  0  0  0  0  0  0  0
 20 21  1  0  0  0  0
 19 21  2  0  0  0  0
 21 22  1  0  0  0  0
 18 19  1  0  0  0  0
 22 23  1  0  0  0  0
 18 23  2  0  0  0  0
 17 18  1  0  0  0  0
 23 24  1  0  0  0  0
 15 16  2  0  0  0  0
 15 17  1  0  0  0  0
 14 15  1  0  0  0  0
  8 14  1  0  0  0  0
 12 13  1  0  0  0  0
  8 13  1  0  0  0  0
 11 12  2  0  0  0  0
  7  8  1  0  0  0  0
  8  9  1  0  0  0  0
 10 11  1  0  0  0  0
  6  7  3  0  0  0  0
  5  6  1  0  0  0  0
  2  5  1  0  0  0  0
  2  3  2  0  0  0  0
  1  2  1  0  0  0  0
  2  4  2  0  0  0  0
  5 25  1  0  0  0  0
 11 26  1  0  0  0  0
 12 27  1  0  0  0  0
 13 28  1  0  0  0  0
 13 29  1  0  0  0  0
 14 30  1  0  0  0  0
 14 31  1  0  0  0  0
 17 32  1  0  0  0  0
 19 33  1  0  0  0  0
 20 34  1  0  0  0  0
 20 35  1  0  0  0  0
M  END
> <Chemgauss4>
-8.631220

$$$$
