stable:False satoms:15 tatoms:24 sratio:0.625
  -OEChem-08062411383D

 35 35  0     1  0  0  0  0  0999 V2000
   -6.3000   -5.4634  -26.4246 Cl  0  0  0  0  0  0  0  0  0  0  0  0
   -8.1087   -4.8220  -26.1925 S   0  0  0  0  0  0  0  0  0  0  0  0
   -8.9771   -5.9705  -26.1847 O   0  0  0  0  0  0  0  0  0  0  0  0
   -8.3670   -3.8649  -27.1971 O   0  0  0  0  0  0  0  0  0  0  0  0
   -7.9854   -4.1307  -24.7047 N   0  0  0  0  0  0  0  0  0  0  0  0
   -8.7515   -3.3075  -24.2908 C   0  0  0  0  0  0  0  0  0  0  0  0
   -9.3179   -2.4308  -23.8554 C   0  0  0  0  0  0  0  0  0  0  0  0
  -10.1555   -1.3476  -23.5813 C   0  0  1  0  0  0  0  0  0  0  0  0
  -10.2468   -0.7630  -24.5509 H   0  0  0  0  0  0  0  0  0  0  0  0
  -11.7187    0.0692  -24.5864 H   0  0  0  0  0  0  0  0  0  0  0  0
  -12.4964   -0.3704  -23.9796 C   0  0  0  0  0  0  0  0  0  0  0  0
  -12.2756   -1.2193  -23.3515 C   0  0  0  0  0  0  0  0  0  0  0  0
  -11.4046   -1.8643  -23.0963 C   0  0  0  0  0  0  0  0  0  0  0  0
   -9.6531   -0.6228  -22.5543 C   0  0  0  0  0  0  0  0  0  0  0  0
   -8.9032    0.0012  -21.6465 C   0  0  0  0  0  0  0  0  0  0  0  0
   -9.2741    1.0241  -21.1357 O   0  0  0  0  0  0  0  0  0  0  0  0
   -7.7262   -0.6310  -21.4235 N   0  0  0  0  0  0  0  0  0  0  0  0
   -6.9581   -0.1510  -20.4453 C   0  0  0  0  0  0  0  0  0  0  0  0
   -7.1739   -0.0629  -19.1499 C   0  0  0  0  0  0  0  0  0  0  0  0
   -6.4353    0.3391  -17.2770 N   0  0  0  0  0  0  0  0  0  0  0  0
   -6.1868    0.4102  -18.3373 C   0  0  0  0  0  0  0  0  0  0  0  0
   -4.8185    0.9092  -19.4324 S   0  0  0  0  0  0  0  0  0  0  0  0
   -5.6325    0.3073  -20.7008 C   0  0  0  0  0  0  0  0  0  0  0  0
   -5.1862    0.2262  -21.6898 H   0  0  0  0  0  0  0  0  0  0  0  0
   -7.0825   -3.7017  -24.6770 H   0  0  0  0  0  0  0  0  0  0  0  0
  -13.4953    0.0398  -24.0015 H   0  0  0  0  0  0  0  0  0  0  0  0
  -13.1566   -1.5360  -22.8131 H   0  0  0  0  0  0  0  0  0  0  0  0
  -11.3445   -1.9532  -22.0015 H   0  0  0  0  0  0  0  0  0  0  0  0
  -11.5657   -2.8594  -23.5366 H   0  0  0  0  0  0  0  0  0  0  0  0
  -10.2524   -1.1505  -21.7978 H   0  0  0  0  0  0  0  0  0  0  0  0
  -10.1737    0.2973  -22.8581 H   0  0  0  0  0  0  0  0  0  0  0  0
   -7.4462   -1.4217  -21.9679 H   0  0  0  0  0  0  0  0  0  0  0  0
   -8.1246   -0.3626  -18.7344 H   0  0  0  0  0  0  0  0  0  0  0  0
   -5.6575    0.6492  -16.7303 H   0  0  0  0  0  0  0  0  0  0  0  0
   -7.2301    0.9137  -17.0817 H   0  0  0  0  0  0  0  0  0  0  0  0
 20 21  1  0  0  0  0
 19 21  2  0  0  0  0
 21 22  1  0  0  0  0
 18 19  1  0  0  0  0
 22 23  1  0  0  0  0
 18 23  2  0  0  0  0
 17 18  1  0  0  0  0
 23 24  1  0  0  0  0
 15 16  2  0  0  0  0
 15 17  1  0  0  0  0
 14 15  1  0  0  0  0
  8 14  1  0  0  0  0
 12 13  1  0  0  0  0
  8 13  1  0  0  0  0
 11 12  2  0  0  0  0
  7  8  1  0  0  0  0
  8  9  1  0  0  0  0
 10 11  1  0  0  0  0
  6  7  3  0  0  0  0
  5  6  1  0  0  0  0
  2  5  1  0  0  0  0
  2  3  2  0  0  0  0
  1  2  1  0  0  0  0
  2  4  2  0  0  0  0
  5 25  1  0  0  0  0
 11 26  1  0  0  0  0
 12 27  1  0  0  0  0
 13 28  1  0  0  0  0
 13 29  1  0  0  0  0
 14 30  1  0  0  0  0
 14 31  1  0  0  0  0
 17 32  1  0  0  0  0
 19 33  1  0  0  0  0
 20 34  1  0  0  0  0
 20 35  1  0  0  0  0
M  END
> <Chemgauss4>
-8.724442

$$$$
