stable:False satoms:7 tatoms:24 sratio:0.2916666666666667
  -OEChem-07092417453D

 24 24  0     0  0  0  0  0  0999 V2000
    6.6919   -4.8091   26.4467 C   0  0  0  0  0  0  0  0  0  0  0  0
    8.1965   -4.3120   26.1195 S   0  0  0  0  0  0  0  0  0  0  0  0
    9.0540   -5.4772   26.0075 O   0  0  0  0  0  0  0  0  0  0  0  0
    8.6465   -3.4571   27.1632 O   0  0  0  0  0  0  0  0  0  0  0  0
    8.0621   -3.5329   24.6778 N   0  0  0  0  0  0  0  0  0  0  0  0
    8.9005   -2.8745   24.1716 C   0  0  0  0  0  0  0  0  0  0  0  0
    9.3581   -1.9975   23.6181 C   0  0  0  0  0  0  0  0  0  0  0  0
   10.0925   -0.9589   23.4153 C   0  0  0  0  0  0  0  0  0  0  0  0
   11.0105   -0.0333   24.2609 C   0  0  0  0  0  0  0  0  0  0  0  0
   12.0540    0.2383   24.2080 C   0  0  0  0  0  0  0  0  0  0  0  0
   13.0314   -0.2415   23.4059 C   0  0  0  0  0  0  0  0  0  0  0  0
   12.7087   -1.2220   22.6556 C   0  0  0  0  0  0  0  0  0  0  0  0
   12.1126   -1.8811   22.3009 C   0  0  0  0  0  0  0  0  0  0  0  0
    9.7482   -0.5834   22.3776 C   0  0  0  0  0  0  0  0  0  0  0  0
    9.0660    0.0242   21.3803 C   0  0  0  0  0  0  0  0  0  0  0  0
    9.4943    1.0041   20.9680 O   0  0  0  0  0  0  0  0  0  0  0  0
    7.9386   -0.6086   21.0660 N   0  0  0  0  0  0  0  0  0  0  0  0
    7.2016   -0.1000   20.1569 C   0  0  0  0  0  0  0  0  0  0  0  0
    7.1897    0.0088   18.8484 C   0  0  0  0  0  0  0  0  0  0  0  0
    6.7775    0.3115   17.7435 N   0  0  0  0  0  0  0  0  0  0  0  0
    5.7120    0.9223   18.2599 C   0  0  0  0  0  0  0  0  0  0  0  0
    5.3168    1.0205   19.4311 C   0  0  0  0  0  0  0  0  0  0  0  0
    5.8598    0.5869   20.5468 C   0  0  0  0  0  0  0  0  0  0  0  0
    5.3603    0.6824   22.0672 Cl  0  0  0  0  0  0  0  0  0  0  0  0
 20 21  2  0  0  0  0
 19 20  1  0  0  0  0
 21 22  1  0  0  0  0
 18 19  2  0  0  0  0
 22 23  2  0  0  0  0
 18 23  1  0  0  0  0
 17 18  1  0  0  0  0
 23 24  1  0  0  0  0
 15 16  2  0  0  0  0
 15 17  1  0  0  0  0
 14 15  1  0  0  0  0
 12 13  2  0  0  0  0
  8 14  2  3  0  0  0
 11 12  1  0  0  0  0
 10 11  2  0  0  0  0
  7  8  1  0  0  0  0
  8  9  1  0  0  0  0
  6  7  3  0  0  0  0
  5  6  1  0  0  0  0
  9 10  1  0  0  0  0
  2  5  1  0  0  0  0
  2  3  2  0  0  0  0
  1  2  1  0  0  0  0
  2  4  2  0  0  0  0
M  END
> <Shapegauss>
-285.059631

$$$$
