stable:False satoms:7 tatoms:24 sratio:0.2916666666666667
  -OEChem-08062413203D

 40 40  0     0  0  0  0  0  0999 V2000
    6.6815   -5.6851   26.0712 C   0  0  0  0  0  0  0  0  0  0  0  0
    8.1181   -4.9488   25.9619 S   0  0  0  0  0  0  0  0  0  0  0  0
    9.1502   -5.9631   25.8540 O   0  0  0  0  0  0  0  0  0  0  0  0
    8.3237   -4.1456   27.1175 O   0  0  0  0  0  0  0  0  0  0  0  0
    8.0142   -4.0584   24.5835 N   0  0  0  0  0  0  0  0  0  0  0  0
    8.7896   -3.2406   24.2335 C   0  0  0  0  0  0  0  0  0  0  0  0
    9.1621   -2.2570   23.8107 C   0  0  0  0  0  0  0  0  0  0  0  0
    9.7464   -1.1095   23.7803 C   0  0  0  0  0  0  0  0  0  0  0  0
   10.4215   -0.1504   24.7997 C   0  0  0  0  0  0  0  0  0  0  0  0
   11.4113    0.2710   24.8901 C   0  0  0  0  0  0  0  0  0  0  0  0
   12.5270    0.0169   24.1694 C   0  0  0  0  0  0  0  0  0  0  0  0
   12.4358   -0.9208   23.3087 C   0  0  0  0  0  0  0  0  0  0  0  0
   11.9865   -1.6199   22.8344 C   0  0  0  0  0  0  0  0  0  0  0  0
    9.4565   -0.6864   22.7443 C   0  0  0  0  0  0  0  0  0  0  0  0
    8.7949   -0.0869   21.7284 C   0  0  0  0  0  0  0  0  0  0  0  0
    9.1086    0.9799   21.4505 O   0  0  0  0  0  0  0  0  0  0  0  0
    7.8151   -0.8398   21.2350 N   0  0  0  0  0  0  0  0  0  0  0  0
    7.1058   -0.3543   20.2919 C   0  0  0  0  0  0  0  0  0  0  0  0
    7.2109   -0.1198   19.0042 C   0  0  0  0  0  0  0  0  0  0  0  0
    6.8722    0.2286   17.8879 N   0  0  0  0  0  0  0  0  0  0  0  0
    5.6790    0.6273   18.3264 C   0  0  0  0  0  0  0  0  0  0  0  0
    5.1561    0.5522   19.4482 C   0  0  0  0  0  0  0  0  0  0  0  0
    5.6423    0.0925   20.5796 C   0  0  0  0  0  0  0  0  0  0  0  0
    4.9817   -0.0345   22.0348 Cl  0  0  0  0  0  0  0  0  0  0  0  0
    6.6576   -6.3113   26.9752 H   0  0  0  0  0  0  0  0  0  0  0  0
    5.8852   -4.9283   26.1284 H   0  0  0  0  0  0  0  0  0  0  0  0
    6.5246   -6.3160   25.1839 H   0  0  0  0  0  0  0  0  0  0  0  0
    7.1369   -3.5821   24.6426 H   0  0  0  0  0  0  0  0  0  0  0  0
    9.7747    0.7388   24.7698 H   0  0  0  0  0  0  0  0  0  0  0  0
   10.2847   -0.6713   25.7588 H   0  0  0  0  0  0  0  0  0  0  0  0
   11.5278    1.0054   25.6734 H   0  0  0  0  0  0  0  0  0  0  0  0
   13.4408    0.5742   24.3138 H   0  0  0  0  0  0  0  0  0  0  0  0
   13.4208   -0.9311   22.8660 H   0  0  0  0  0  0  0  0  0  0  0  0
   12.5088   -2.1764   22.0703 H   0  0  0  0  0  0  0  0  0  0  0  0
   10.9569   -1.8525   23.0632 H   0  0  0  0  0  0  0  0  0  0  0  0
   10.3456   -0.9747   22.2033 H   0  0  0  0  0  0  0  0  0  0  0  0
    7.6402   -1.7574   21.5920 H   0  0  0  0  0  0  0  0  0  0  0  0
    8.2306   -0.4258   18.8228 H   0  0  0  0  0  0  0  0  0  0  0  0
    5.0608    1.0968   17.5755 H   0  0  0  0  0  0  0  0  0  0  0  0
    4.1431    0.9223   19.5045 H   0  0  0  0  0  0  0  0  0  0  0  0
 20 21  2  0  0  0  0
 19 20  1  0  0  0  0
 21 22  1  0  0  0  0
 18 19  2  0  0  0  0
 22 23  2  0  0  0  0
 18 23  1  0  0  0  0
 17 18  1  0  0  0  0
 23 24  1  0  0  0  0
 15 16  2  0  0  0  0
 15 17  1  0  0  0  0
 14 15  1  0  0  0  0
 12 13  2  0  0  0  0
  8 14  2  3  0  0  0
 11 12  1  0  0  0  0
 10 11  2  0  0  0  0
  7  8  1  0  0  0  0
  8  9  1  0  0  0  0
  6  7  3  0  0  0  0
  5  6  1  0  0  0  0
  9 10  1  0  0  0  0
  2  5  1  0  0  0  0
  2  3  2  0  0  0  0
  1  2  1  0  0  0  0
  2  4  2  0  0  0  0
  1 25  1  0  0  0  0
  1 26  1  0  0  0  0
  1 27  1  0  0  0  0
  5 28  1  0  0  0  0
  9 29  1  0  0  0  0
  9 30  1  0  0  0  0
 10 31  1  0  0  0  0
 11 32  1  0  0  0  0
 12 33  1  0  0  0  0
 13 34  1  0  0  0  0
 13 35  1  0  0  0  0
 14 36  1  0  0  0  0
 17 37  1  0  0  0  0
 19 38  1  0  0  0  0
 21 39  1  0  0  0  0
 22 40  1  0  0  0  0
M  END
> <Chemgauss4>
-12.352966

$$$$
