stable:False satoms:7 tatoms:24 sratio:0.2916666666666667
  -OEChem-08062413203D

 40 40  0     0  0  0  0  0  0999 V2000
   -6.2512   -4.9026  -26.0317 C   0  0  0  0  0  0  0  0  0  0  0  0
   -7.7888   -4.4143  -25.9084 S   0  0  0  0  0  0  0  0  0  0  0  0
   -8.6403   -5.5861  -25.8226 O   0  0  0  0  0  0  0  0  0  0  0  0
   -8.1263   -3.6320  -27.0471 O   0  0  0  0  0  0  0  0  0  0  0  0
   -7.8288   -3.5478  -24.5116 N   0  0  0  0  0  0  0  0  0  0  0  0
   -8.7269   -2.8756  -24.1453 C   0  0  0  0  0  0  0  0  0  0  0  0
   -9.2546   -1.9754  -23.7024 C   0  0  0  0  0  0  0  0  0  0  0  0
  -10.0190   -0.9401  -23.6486 C   0  0  0  0  0  0  0  0  0  0  0  0
  -10.8448   -0.0838  -24.6482 C   0  0  0  0  0  0  0  0  0  0  0  0
  -11.8905    0.1714  -24.7308 C   0  0  0  0  0  0  0  0  0  0  0  0
  -12.9476   -0.2771  -24.0165 C   0  0  0  0  0  0  0  0  0  0  0  0
  -12.7017   -1.2048  -23.1754 C   0  0  0  0  0  0  0  0  0  0  0  0
  -12.1426   -1.8304  -22.7155 C   0  0  0  0  0  0  0  0  0  0  0  0
   -9.7997   -0.4968  -22.6037 C   0  0  0  0  0  0  0  0  0  0  0  0
   -9.2428    0.1820  -21.5749 C   0  0  0  0  0  0  0  0  0  0  0  0
   -9.7264    1.1769  -21.2751 O   0  0  0  0  0  0  0  0  0  0  0  0
   -8.1516   -0.4102  -21.0965 N   0  0  0  0  0  0  0  0  0  0  0  0
   -7.5290    0.1655  -20.1428 C   0  0  0  0  0  0  0  0  0  0  0  0
   -7.6679    0.3528  -18.8506 C   0  0  0  0  0  0  0  0  0  0  0  0
   -7.3880    0.7288  -17.7270 N   0  0  0  0  0  0  0  0  0  0  0  0
   -6.2775    1.3268  -18.1560 C   0  0  0  0  0  0  0  0  0  0  0  0
   -5.7522    1.3617  -19.2787 C   0  0  0  0  0  0  0  0  0  0  0  0
   -6.1593    0.8521  -20.4198 C   0  0  0  0  0  0  0  0  0  0  0  0
   -5.4906    0.8652  -21.8768 Cl  0  0  0  0  0  0  0  0  0  0  0  0
   -6.1273   -5.4977  -26.9485 H   0  0  0  0  0  0  0  0  0  0  0  0
   -5.5899   -4.0245  -26.0724 H   0  0  0  0  0  0  0  0  0  0  0  0
   -5.9907   -5.5176  -25.1576 H   0  0  0  0  0  0  0  0  0  0  0  0
   -7.0416   -2.9329  -24.5600 H   0  0  0  0  0  0  0  0  0  0  0  0
  -10.3525    0.8987  -24.5993 H   0  0  0  0  0  0  0  0  0  0  0  0
  -10.6269   -0.5552  -25.6179 H   0  0  0  0  0  0  0  0  0  0  0  0
  -12.1279    0.8928  -25.4986 H   0  0  0  0  0  0  0  0  0  0  0  0
  -13.9408    0.1257  -24.1500 H   0  0  0  0  0  0  0  0  0  0  0  0
  -13.6706   -1.3856  -22.7339 H   0  0  0  0  0  0  0  0  0  0  0  0
  -12.5647   -2.4807  -21.9636 H   0  0  0  0  0  0  0  0  0  0  0  0
  -11.0895   -1.8863  -22.9482 H   0  0  0  0  0  0  0  0  0  0  0  0
  -10.6282   -0.9381  -22.0696 H   0  0  0  0  0  0  0  0  0  0  0  0
   -7.8294   -1.2790  -21.4724 H   0  0  0  0  0  0  0  0  0  0  0  0
   -8.6232   -0.1200  -18.6765 H   0  0  0  0  0  0  0  0  0  0  0  0
   -5.7427    1.8756  -17.3950 H   0  0  0  0  0  0  0  0  0  0  0  0
   -4.8137    1.8940  -19.3263 H   0  0  0  0  0  0  0  0  0  0  0  0
 20 21  2  0  0  0  0
 19 20  1  0  0  0  0
 21 22  1  0  0  0  0
 18 19  2  0  0  0  0
 22 23  2  0  0  0  0
 18 23  1  0  0  0  0
 17 18  1  0  0  0  0
 23 24  1  0  0  0  0
 15 16  2  0  0  0  0
 15 17  1  0  0  0  0
 14 15  1  0  0  0  0
 12 13  2  0  0  0  0
  8 14  2  3  0  0  0
 11 12  1  0  0  0  0
 10 11  2  0  0  0  0
  7  8  1  0  0  0  0
  8  9  1  0  0  0  0
  6  7  3  0  0  0  0
  5  6  1  0  0  0  0
  9 10  1  0  0  0  0
  2  5  1  0  0  0  0
  2  3  2  0  0  0  0
  1  2  1  0  0  0  0
  2  4  2  0  0  0  0
  1 25  1  0  0  0  0
  1 26  1  0  0  0  0
  1 27  1  0  0  0  0
  5 28  1  0  0  0  0
  9 29  1  0  0  0  0
  9 30  1  0  0  0  0
 10 31  1  0  0  0  0
 11 32  1  0  0  0  0
 12 33  1  0  0  0  0
 13 34  1  0  0  0  0
 13 35  1  0  0  0  0
 14 36  1  0  0  0  0
 17 37  1  0  0  0  0
 19 38  1  0  0  0  0
 21 39  1  0  0  0  0
 22 40  1  0  0  0  0
M  END
> <Chemgauss4>
-12.067492

$$$$
