stable:False satoms:22 tatoms:24 sratio:0.9166666666666666
  -OEChem-07092417303D

 24 24  0     1  0  0  0  0  0999 V2000
    7.5596    0.9647   24.1544 H   0  0  0  0  0  0  0  0  0  0  0  0
    9.3166   -1.1398   23.2637 H   0  0  0  0  0  0  0  0  0  0  0  0
   10.8590   -3.0000   19.7355 H   0  0  0  0  0  0  0  0  0  0  0  0
    6.6278   -1.0238   24.9916 H   0  0  0  0  0  0  0  0  0  0  0  0
    9.7780    1.7779   23.7260 H   0  0  0  0  0  0  0  0  0  0  0  0
    7.3624   -3.2197   23.9199 O   0  0  0  0  0  0  0  0  0  0  0  0
    8.9124   -0.1410   23.3018 C   0  3  0  0  0  0  0  0  0  0  0  0
    5.7413   -0.5675   23.4977 H   0  0  0  0  0  0  0  0  0  0  0  0
   10.3482   -3.2243   20.6759 C   0  0  0  0  0  0  0  0  0  0  0  0
   10.2728   -4.3436   20.7116 H   0  0  0  0  0  0  0  0  0  0  0  0
    6.0501   -2.7837   21.5310 H   0  0  0  0  0  0  0  0  0  0  0  0
    6.6980   -0.8947   23.9146 C   0  0  0  0  0  0  0  0  0  0  0  0
    6.8408   -1.1898   21.3951 H   0  0  0  0  0  0  0  0  0  0  0  0
    7.6905    0.1164   23.6033 N   0  0  0  0  0  0  0  0  0  0  0  0
    9.5501    1.4009   22.0005 H   0  0  0  0  0  0  0  0  0  0  0  0
   11.8525    0.9477   23.4506 H   0  0  0  0  0  0  0  0  0  0  0  0
    9.3051   -2.6856   21.2784 C   0  0  2  0  0  0  0  0  0  0  0  0
   10.4643   -2.2988   21.7167 O   0  0  0  0  0  0  0  0  0  0  0  0
   11.1694    0.4292   22.9353 N   0  0  0  0  0  0  0  0  0  0  0  0
   11.3329   -0.1192   22.1210 H   0  0  0  0  0  0  0  0  0  0  0  0
    7.0515   -2.2270   23.3099 C   0  0  0  0  0  0  0  0  0  0  0  0
    9.8465    0.9852   22.9692 C   0  0  0  0  0  0  0  0  0  0  0  0
    6.9317   -2.2021   21.8059 C   0  0  0  0  0  0  0  0  0  0  0  0
    8.0226   -2.8517   21.2871 O   0  0  0  0  0  0  0  0  0  0  0  0
  3  9  1  0  0  0  0
  9 10  1  0  0  0  0
  9 17  1  0  0  0  0
  9 18  1  0  0  0  0
 17 24  1  0  0  0  0
 17 18  1  0  0  0  0
 23 24  1  0  0  0  0
 13 23  1  0  0  0  0
 11 23  1  0  0  0  0
 21 23  1  0  0  0  0
 15 22  1  0  0  0  0
 19 20  1  0  0  0  0
 19 22  1  0  0  0  0
 16 19  1  0  0  0  0
  7 22  1  0  0  0  0
  5 22  1  0  0  0  0
  2  7  1  0  0  0  0
  7 14  1  0  0  0  0
 12 21  1  0  0  0  0
  6 21  2  0  0  0  0
  8 12  1  0  0  0  0
 12 14  1  0  0  0  0
  1 14  1  0  0  0  0
  4 12  1  0  0  0  0
M  CHG  1   7   1
M  END
> <Shapegauss>
-74.716599

$$$$
