stable:False satoms:22 tatoms:24 sratio:0.9166666666666666
  -OEChem-08052413443D

 25 25  0     1  0  0  0  0  0999 V2000
   -8.3996   -1.9979  -21.5374 H   0  0  0  0  0  0  0  0  0  0  0  0
  -12.1022    3.3830  -23.1863 H   0  0  0  0  0  0  0  0  0  0  0  0
   -8.7849   -2.8094  -23.4781 H   0  0  0  0  0  0  0  0  0  0  0  0
   -7.8686   -0.1453  -20.0961 H   0  0  0  0  0  0  0  0  0  0  0  0
   -9.9658   -1.2523  -25.1185 O   0  0  0  0  0  0  0  0  0  0  0  0
   -9.0833   -0.3320  -21.8571 C   0  0  0  0  0  2  0  0  0  0  0  0
  -10.3448   -3.1668  -22.6626 H   0  0  0  0  0  0  0  0  0  0  0  0
  -11.5511    2.6294  -23.7554 C   0  0  0  0  0  0  0  0  0  0  0  0
  -11.8330    2.8043  -24.8277 H   0  0  0  0  0  0  0  0  0  0  0  0
  -12.4900   -1.6616  -24.0794 H   0  0  0  0  0  0  0  0  0  0  0  0
   -9.6633   -2.3815  -23.0018 C   0  0  0  0  0  0  0  0  0  0  0  0
  -11.8773   -1.2631  -22.4515 H   0  0  0  0  0  0  0  0  0  0  0  0
   -9.2660   -1.6035  -21.8437 N   0  3  0  0  0  0  0  0  0  0  0  0
   -9.5650    0.3668  -19.9187 H   0  0  0  0  0  0  0  0  0  0  0  0
   -9.0874    2.1654  -21.4029 H   0  0  0  0  0  0  0  0  0  0  0  0
  -11.3256    1.3447  -23.5554 C   0  0  2  0  0  0  0  0  0  0  0  0
  -10.3612    2.1415  -23.2082 O   0  0  0  0  0  0  0  0  0  0  0  0
   -8.3166    1.7077  -20.9598 N   0  0  0  0  0  0  0  0  0  0  0  0
   -8.0518    2.2179  -20.1415 H   0  0  0  0  0  0  0  0  0  0  0  0
  -10.3786   -1.5366  -24.0217 C   0  0  0  0  0  0  0  0  0  0  0  0
   -8.7000    0.3748  -20.5902 C   0  0  0  0  0  0  0  0  0  0  0  0
  -11.7353   -1.0999  -23.5262 C   0  0  0  0  0  0  0  0  0  0  0  0
  -11.8957    0.2226  -23.8524 O   0  0  0  0  0  0  0  0  0  0  0  0
  -11.7769    1.3689  -22.5525 H   0  0  0  0  0  0  0  0  0  0  0  0
   -9.9700   -1.7682  -21.1529 H   0  0  0  0  0  0  0  0  0  0  0  0
  2  8  1  0  0  0  0
  8  9  1  0  0  0  0
  8 16  1  0  0  0  0
  8 17  1  0  0  0  0
 16 23  1  0  0  0  0
 16 17  1  0  0  0  0
 22 23  1  0  0  0  0
 12 22  1  0  0  0  0
 10 22  1  0  0  0  0
 20 22  1  0  0  0  0
 14 21  1  0  0  0  0
 18 19  1  0  0  0  0
 18 21  1  0  0  0  0
 15 18  1  0  0  0  0
  6 21  1  0  0  0  0
  4 21  1  0  0  0  0
  6 13  1  0  0  0  0
 11 20  1  0  0  0  0
  5 20  2  0  0  0  0
  7 11  1  0  0  0  0
 11 13  1  0  0  0  0
  1 13  1  0  0  0  0
  3 11  1  0  0  0  0
 16 24  1  0  0  0  0
 13 25  1  0  0  0  0
M  CHG  1  13   1
M  END
> <Chemgauss4>
-4.920073

$$$$
