stable:False satoms:2 tatoms:24 sratio:0.08333333333333333
  -OEChem-07092417463D

 24 23  0     1  0  0  0  0  0999 V2000
    6.6869   -4.7983   26.4329 C   0  0  0  0  0  0  0  0  0  0  0  0
    8.1554   -4.3313   26.0984 S   0  0  0  0  0  0  0  0  0  0  0  0
    8.9915   -5.4938   26.0096 O   0  0  0  0  0  0  0  0  0  0  0  0
    8.5969   -3.4479   27.1303 O   0  0  0  0  0  0  0  0  0  0  0  0
    8.0792   -3.5603   24.6940 N   0  0  0  0  0  0  0  0  0  0  0  0
    8.8986   -2.9102   24.1522 C   0  0  0  0  0  0  0  0  0  0  0  0
    9.3970   -2.0473   23.5299 C   0  0  0  0  0  0  0  0  0  0  0  0
   10.4008   -1.2180   23.0483 C   0  0  1  0  0  0  0  0  0  0  0  0
   11.1860    0.2268   24.4179 C   0  0  0  0  0  0  0  0  0  0  0  0
   12.1790    0.2017   24.1347 C   0  0  0  0  0  0  0  0  0  0  0  0
   13.1462    0.1983   23.8459 C   0  0  0  0  0  0  0  0  0  0  0  0
   12.7355   -1.5119   22.4447 C   0  0  0  0  0  0  0  0  0  0  0  0
   11.9024   -1.4629   22.6822 C   0  0  0  0  0  0  0  0  0  0  0  0
    9.7024   -0.6576   22.3886 C   0  0  0  0  0  0  0  0  0  0  0  0
    9.0228    0.0449   21.4156 C   0  0  0  0  0  0  0  0  0  0  0  0
    9.5137    0.9854   20.9505 O   0  0  0  0  0  0  0  0  0  0  0  0
    7.8686   -0.5181   21.1469 N   0  0  0  0  0  0  0  0  0  0  0  0
    7.1652   -0.1383   20.2059 C   0  0  0  0  0  0  0  0  0  0  0  0
    7.1925   -0.0338   18.8691 C   0  0  0  0  0  0  0  0  0  0  0  0
    6.8127    0.2407   17.8060 N   0  0  0  0  0  0  0  0  0  0  0  0
    5.5767    0.8620   18.2976 C   0  0  0  0  0  0  0  0  0  0  0  0
    5.2298    0.9535   19.4194 C   0  0  0  0  0  0  0  0  0  0  0  0
    5.7464    0.5290   20.5850 C   0  0  0  0  0  0  0  0  0  0  0  0
    5.3979    0.5973   21.5910 C   0  0  0  0  0  0  0  0  0  0  0  0
 20 21  2  0  0  0  0
 19 20  1  0  0  0  0
 21 22  1  0  0  0  0
 18 19  2  0  0  0  0
 22 23  2  0  0  0  0
 18 23  1  0  0  0  0
 17 18  1  0  0  0  0
 23 24  1  0  0  0  0
 15 16  2  0  0  0  0
 15 17  1  0  0  0  0
 14 15  1  0  0  0  0
  8 14  1  0  0  0  0
 12 13  3  0  0  0  0
  8 13  1  0  0  0  0
  7  8  1  0  0  0  0
  6  7  3  0  0  0  0
 10 11  3  0  0  0  0
  9 10  1  0  0  0  0
  5  6  1  0  0  0  0
  2  5  1  0  0  0  0
  2  3  2  0  0  0  0
  1  2  1  0  0  0  0
  2  4  2  0  0  0  0
M  END
> <Shapegauss>
-288.333313

$$$$
