stable:False satoms:8 tatoms:24 sratio:0.3333333333333333
  -OEChem-07092417453D

 24 25  0     1  0  0  0  0  0999 V2000
    6.5265   -4.8621   26.4719 C   0  0  0  0  0  0  0  0  0  0  0  0
    8.2782   -4.3107   26.0992 S   0  0  0  0  0  0  0  0  0  0  0  0
    9.1114   -5.5049   26.0416 O   0  0  0  0  0  0  0  0  0  0  0  0
    8.6762   -3.4071   27.1160 O   0  0  0  0  0  0  0  0  0  0  0  0
    8.1513   -3.5694   24.6596 N   0  0  0  0  0  0  0  0  0  0  0  0
    8.9563   -2.9117   24.1310 C   0  0  0  0  0  0  0  0  0  0  0  0
    9.4635   -2.0077   23.5298 C   0  0  0  0  0  0  0  0  0  0  0  0
   10.3700   -1.1664   23.2357 C   0  0  1  0  0  0  0  0  0  0  0  0
   11.0577   -0.0233   24.3547 C   0  0  0  0  0  0  0  0  0  0  0  0
   12.0550    0.2495   24.3230 C   0  0  0  0  0  0  0  0  0  0  0  0
   13.1669   -0.2564   23.4399 C   0  0  0  0  0  0  0  0  0  0  0  0
   12.8298   -1.1356   22.7487 C   0  0  0  0  0  0  0  0  0  0  0  0
   11.7973   -1.6865   22.5384 C   0  0  0  0  0  0  0  0  0  0  0  0
    9.7095   -0.5557   22.3768 C   0  0  0  0  0  0  0  0  0  0  0  0
    9.0312    0.0426   21.4231 C   0  0  0  0  0  0  0  0  0  0  0  0
    9.5745    0.9451   20.9876 O   0  0  0  0  0  0  0  0  0  0  0  0
    7.8468   -0.5548   21.1448 N   0  0  0  0  0  0  0  0  0  0  0  0
    7.1601   -0.0745   20.2134 C   0  0  0  0  0  0  0  0  0  0  0  0
    7.1354    0.0459   18.8880 C   0  0  0  0  0  0  0  0  0  0  0  0
    6.6972    0.2973   17.7683 N   0  0  0  0  0  0  0  0  0  0  0  0
    5.6396    0.8569   18.2586 C   0  0  0  0  0  0  0  0  0  0  0  0
    5.0952    1.0165   19.3882 C   0  0  0  0  0  0  0  0  0  0  0  0
    5.7869    0.5915   20.5676 C   0  0  0  0  0  0  0  0  0  0  0  0
    5.4676    0.6914   21.5908 C   0  0  0  0  0  0  0  0  0  0  0  0
 20 21  2  0  0  0  0
 19 20  1  0  0  0  0
 21 22  1  0  0  0  0
 18 19  2  0  0  0  0
 22 23  2  0  0  0  0
 18 23  1  0  0  0  0
 17 18  1  0  0  0  0
 23 24  1  0  0  0  0
 15 16  2  0  0  0  0
 15 17  1  0  0  0  0
 14 15  1  0  0  0  0
  8 14  1  0  0  0  0
 12 13  1  0  0  0  0
  8 13  1  0  0  0  0
 11 12  2  0  0  0  0
  7  8  1  0  0  0  0
  8  9  1  0  0  0  0
 10 11  1  0  0  0  0
  6  7  3  0  0  0  0
  5  6  1  0  0  0  0
  9 10  2  0  0  0  0
  2  5  1  0  0  0  0
  2  3  2  0  0  0  0
  1  2  1  0  0  0  0
  2  4  2  0  0  0  0
M  END
> <Shapegauss>
-288.843170

$$$$
