REMARK  7 active torsions:
REMARK  status: ('A' for Active; 'I' for Inactive)
REMARK    1  A    between atoms: S_2  and  N_5 
REMARK    2  A    between atoms: N_5  and  C_7 
REMARK    3  A    between atoms: C_7  and  C_8 
REMARK    4  A    between atoms: C_8  and  C_9 
REMARK    5  A    between atoms: C_9  and  C_15 
REMARK    6  A    between atoms: C_15  and  C_16 
REMARK       I    between atoms: C_16  and  N_18 
REMARK    7  A    between atoms: N_18  and  C_20 
ROOT
HETATM    1  C   UNL     1      10.370  -1.166  23.236  1.00  0.00     0.068 C 
HETATM    2  C   UNL     1      11.058  -0.023  24.355  1.00  0.00     0.000 C 
HETATM    3  C   UNL     1      12.055   0.249  24.323  1.00  0.00    -0.002 C 
HETATM    4  C   UNL     1      13.167  -0.256  23.440  1.00  0.00    -0.001 C 
HETATM    5  C   UNL     1      12.830  -1.136  22.749  1.00  0.00    -0.002 C 
HETATM    6  C   UNL     1      11.797  -1.687  22.538  1.00  0.00     0.000 C 
ENDROOT
BRANCH   1   7
HETATM    7  C   UNL     1       9.463  -2.008  23.530  1.00  0.00     0.135 C 
BRANCH   7   8
HETATM    8  C   UNL     1       8.956  -2.912  24.131  1.00  0.00    -0.058 C 
BRANCH   8   9
HETATM    9  N   UNL     1       8.151  -3.569  24.660  1.00  0.00    -0.254 N 
ATOM     10  HN  UNL     1       7.268  -3.691  24.164  1.00  0.00     0.188 HD
BRANCH   9  11
HETATM   11  S   UNL     1       8.278  -4.311  26.099  1.00  0.00     0.233 S 
HETATM   12  C   UNL     1       6.527  -4.862  26.472  1.00  0.00     0.186 C 
HETATM   13  O   UNL     1       9.111  -5.505  26.042  1.00  0.00    -0.206 OA
HETATM   14  O   UNL     1       8.676  -3.407  27.116  1.00  0.00    -0.206 OA
ENDBRANCH   9  11
ENDBRANCH   8   9
ENDBRANCH   7   8
ENDBRANCH   1   7
BRANCH   1  15
HETATM   15  C   UNL     1       9.710  -0.556  22.377  1.00  0.00    -0.064 C 
BRANCH  15  16
HETATM   16  C   UNL     1       9.031   0.043  21.423  1.00  0.00     0.290 C 
HETATM   17  O   UNL     1       9.575   0.945  20.988  1.00  0.00    -0.259 OA
HETATM   18  N   UNL     1       7.847  -0.555  21.145  1.00  0.00    -0.315 N 
ATOM     19  HN  UNL     1       7.527  -1.366  21.674  1.00  0.00     0.170 HD
BRANCH  18  20
HETATM   20  C   UNL     1       7.160  -0.074  20.213  1.00  0.00     0.060 C 
HETATM   21  C   UNL     1       7.135   0.046  18.888  1.00  0.00     0.117 C 
HETATM   22  N   UNL     1       6.697   0.297  17.768  1.00  0.00    -0.373 N 
HETATM   23  C   UNL     1       5.640   0.857  18.259  1.00  0.00     0.088 C 
ATOM     24  HN  UNL     1       7.035   0.129  16.820  1.00  0.00     0.164 HD
HETATM   25  C   UNL     1       5.095   1.016  19.388  1.00  0.00     0.030 C 
HETATM   26  C   UNL     1       5.787   0.592  20.568  1.00  0.00    -0.016 C 
HETATM   27  C   UNL     1       5.468   0.691  21.591  1.00  0.00     0.026 C 
ENDBRANCH  18  20
ENDBRANCH  15  16
ENDBRANCH   1  15
TORSDOF 7
