REMARK  2 active torsions:
REMARK  status: ('A' for Active; 'I' for Inactive)
REMARK    1  A    between atoms: S_6  and  C_15 
REMARK    2  A    between atoms: C_9  and  C_19 
ROOT
HETATM    1  C   UNL     1       7.799  -4.149  22.860  1.00  0.00     0.051 C 
HETATM    2  C   UNL     1       9.236  -4.068  23.035  1.00  0.00     0.039 C 
HETATM    3  C   UNL     1       8.170  -1.645  22.610  1.00  0.00    -0.015 C 
HETATM    4  N   UNL     1      10.247  -1.780  23.287  1.00  0.00    -0.361 N 
ATOM      5  HN  UNL     1      11.090  -1.302  23.606  1.00  0.00     0.165 HD
HETATM    6  C   UNL     1      10.278  -3.070  23.140  1.00  0.00     0.090 C 
HETATM    7  H   UNL     1       6.447  -1.192  22.077  1.00  0.00     0.176 HD
HETATM    8 BR   UNL     1       7.044  -5.959  23.622  1.00  0.00    -0.048 Br
HETATM    9  C   UNL     1       6.826  -3.231  22.486  1.00  0.00     0.128 C 
HETATM   10  N   UNL     1       7.055  -1.928  22.355  1.00  0.00    -0.310 N 
HETATM   11 CL   UNL     1       5.189  -3.598  22.170  1.00  0.00    -0.062 Cl
HETATM   12  C   UNL     1       9.192  -1.080  23.045  1.00  0.00     0.078 C 
ENDROOT
BRANCH  12  13
HETATM   13  C   UNL     1       9.056   0.401  23.171  1.00  0.00     0.068 A 
HETATM   14  C   UNL     1       8.772   0.910  21.870  1.00  0.00     0.141 A 
HETATM   15  C   UNL     1       7.820   1.125  22.972  1.00  0.00     0.036 A 
BRANCH  14  16
HETATM   16  S   UNL     1      10.454   1.509  21.331  1.00  0.00     0.106 S 
HETATM   17  O   UNL     1      10.598   0.949  19.996  1.00  0.00    -0.595 OA
HETATM   18  O   UNL     1      10.345   2.950  21.402  1.00  0.00    -0.595 OA
HETATM   19  O   UNL     1      11.435   0.973  22.269  1.00  0.00    -0.595 OA
ENDBRANCH  14  16
ENDBRANCH  12  13
TORSDOF 2
