stable:False satoms:13 tatoms:24 sratio:0.5416666666666666
  -OEChem-07092417293D

 24 25  0     1  0  0  0  0  0999 V2000
    7.7988   -4.1489   22.8601 C   0  0  0  0  0  0  0  0  0  0  0  0
    9.2358   -4.0677   23.0347 C   0  0  0  0  0  0  0  0  0  0  0  0
   10.5978    0.9493   19.9961 O   0  0  0  0  0  0  0  0  0  0  0  0
   10.3454    2.9503   21.4022 O   0  0  0  0  0  0  0  0  0  0  0  0
    8.1696   -1.6455   22.6096 C   0  0  0  0  0  0  0  0  0  0  0  0
    9.6515   -5.0377   23.1655 H   0  0  0  0  0  0  0  0  0  0  0  0
   10.4540    1.5093   21.3308 S   0  0  0  0  0  0  0  0  0  0  0  0
   10.2469   -1.7798   23.2872 N   0  0  0  0  0  0  0  0  0  0  0  0
    8.3513    0.5253   20.9647 H   0  0  0  0  0  0  0  0  0  0  0  0
    9.7704    0.8403   23.8494 H   0  0  0  0  0  0  0  0  0  0  0  0
    9.0559    0.4011   23.1706 C   0  0  1  0  0  0  0  0  0  0  0  0
   10.2776   -3.0695   23.1402 C   0  0  0  0  0  0  0  0  0  0  0  0
    6.4466   -1.1924   22.0767 H   0  0  0  0  0  0  0  0  0  0  0  0
    6.9264    0.5725   23.2335 H   0  0  0  0  0  0  0  0  0  0  0  0
   11.4353    0.9730   22.2692 O   0  5  0  0  0  0  0  0  0  0  0  0
    7.0442   -5.9588   23.6218 Br  0  0  0  0  0  0  0  0  0  0  0  0
    6.8259   -3.2309   22.4864 C   0  0  3  0  0  0  0  0  0  0  0  0
    8.7722    0.9103   21.8699 C   0  0  1  0  0  0  0  0  0  0  0  0
    7.8200    1.1246   22.9718 C   0  0  0  0  0  0  0  0  0  0  0  0
    7.0549   -1.9284   22.3546 N   0  0  0  0  0  0  0  0  0  0  0  0
   11.2901   -3.4708   23.1570 H   0  0  0  0  0  0  0  0  0  0  0  0
    5.1886   -3.5982   22.1702 Cl  0  0  0  0  0  0  0  0  0  0  0  0
    9.1920   -1.0798   23.0452 C   0  0  0  0  0  0  0  0  0  0  0  0
    7.6330    2.1621   23.2293 H   0  0  0  0  0  0  0  0  0  0  0  0
  3  7  2  0  0  0  0
  9 18  1  0  0  0  0
  4  7  2  0  0  0  0
  7 18  1  0  0  0  0
  7 15  1  0  0  0  0
 18 19  1  0  0  0  0
 11 18  1  0  0  0  0
 13 20  1  0  0  0  0
 17 22  1  0  0  0  0
 17 20  1  0  0  0  0
  5 20  1  0  0  0  0
  1 17  1  0  0  0  0
  5 23  2  3  0  0  0
  1  2  2  0  0  0  0
  1 16  1  0  0  0  0
 11 19  1  0  0  0  0
 19 24  1  0  0  0  0
 14 19  1  0  0  0  0
  2 12  1  0  0  0  0
  2  6  1  0  0  0  0
 11 23  1  0  0  0  0
  8 23  1  0  0  0  0
 12 21  1  0  0  0  0
  8 12  2  0  0  0  0
 10 11  1  0  0  0  0
M  CHG  1  15  -1
M  END
> <Shapegauss>
-129.818619

$$$$
