MODEL 1
REMARK VINA RESULT:    -5.913      0.000      0.000
REMARK INTER + INTRA:          -7.026
REMARK INTER:                  -6.604
REMARK INTRA:                  -0.422
REMARK UNBOUND:                -0.422
REMARK  2 active torsions:
REMARK  status: ('A' for Active; 'I' for Inactive)
REMARK    1  A    between atoms: S_6  and  C_15 
REMARK    2  A    between atoms: C_9  and  C_19 
ROOT
HETATM    1  C   UNL     1       5.597  11.574   3.069  1.00  0.00     0.051 C 
HETATM    2  C   UNL     1       5.986  11.618   1.673  1.00  0.00     0.039 C 
HETATM    3  C   UNL     1       6.630  13.895   2.933  1.00  0.00    -0.015 C 
HETATM    4  N   UNL     1       7.439  13.531   0.932  1.00  0.00    -0.361 N 
ATOM      5  HN  UNL     1       8.060  13.826   0.179  1.00  0.00     0.165 HD
HETATM    6  C   UNL     1       6.698  12.479   0.754  1.00  0.00     0.090 C 
HETATM    7  H   UNL     1       6.147  14.480   4.630  1.00  0.00     0.176 HD
HETATM    8 BR   UNL     1       5.288   9.593   3.708  1.00  0.00    -0.048 Br
HETATM    9  C   UNL     1       5.578  12.518   4.088  1.00  0.00     0.128 C 
HETATM   10  N   UNL     1       6.120  13.727   3.982  1.00  0.00    -0.310 N 
HETATM   11 CL   UNL     1       4.903  12.285   5.639  1.00  0.00    -0.062 Cl
HETATM   12  C   UNL     1       7.418  14.217   2.023  1.00  0.00     0.078 C 
ENDROOT
BRANCH  12  13
HETATM   13  C   UNL     1       8.218  15.441   2.322  1.00  0.00     0.068 A 
HETATM   14  C   UNL     1       9.590  15.105   2.133  1.00  0.00     0.141 A 
HETATM   15  C   UNL     1       8.976  16.179   1.336  1.00  0.00     0.036 A 
BRANCH  14  16
HETATM   16  S   UNL     1      10.141  14.799   3.889  1.00  0.00     0.106 S 
HETATM   17  O   UNL     1       9.836  13.392   4.096  1.00  0.00    -0.595 OA
HETATM   18  O   UNL     1      11.546  15.144   3.873  1.00  0.00    -0.595 OA
HETATM   19  O   UNL     1       9.358  15.673   4.756  1.00  0.00    -0.595 OA
ENDBRANCH  14  16
ENDBRANCH  12  13
TORSDOF 2
ENDMDL
MODEL 2
REMARK VINA RESULT:    -5.818      5.293      6.823
REMARK INTER + INTRA:          -6.921
REMARK INTER:                  -6.578
REMARK INTRA:                  -0.343
REMARK UNBOUND:                -0.422
REMARK  2 active torsions:
REMARK  status: ('A' for Active; 'I' for Inactive)
REMARK    1  A    between atoms: S_6  and  C_15 
REMARK    2  A    between atoms: C_9  and  C_19 
ROOT
HETATM    1  C   UNL     1      10.012  20.592   1.885  1.00  0.00     0.051 C 
HETATM    2  C   UNL     1      10.559  20.083   3.128  1.00  0.00     0.039 C 
HETATM    3  C   UNL     1       8.909  18.302   1.991  1.00  0.00    -0.015 C 
HETATM    4  N   UNL     1      10.168  17.658   3.662  1.00  0.00    -0.361 N 
ATOM      5  HN  UNL     1      10.505  16.898   4.253  1.00  0.00     0.165 HD
HETATM    6  C   UNL     1      10.563  18.869   3.914  1.00  0.00     0.090 C 
HETATM    7  H   UNL     1       7.754  18.518   0.550  1.00  0.00     0.176 HD
HETATM    8 BR   UNL     1      11.169  22.185   1.144  1.00  0.00    -0.048 Br
HETATM    9  C   UNL     1       9.033  20.136   1.012  1.00  0.00     0.128 C 
HETATM   10  N   UNL     1       8.469  18.935   1.100  1.00  0.00    -0.310 N 
HETATM   11 CL   UNL     1       8.418  21.002  -0.325  1.00  0.00    -0.062 Cl
HETATM   12  C   UNL     1       9.366  17.379   2.692  1.00  0.00     0.078 C 
ENDROOT
BRANCH  12  13
HETATM   13  C   UNL     1       8.845  16.028   2.326  1.00  0.00     0.068 A 
HETATM   14  C   UNL     1       8.463  15.382   3.538  1.00  0.00     0.141 A 
HETATM   15  C   UNL     1       7.467  15.618   2.480  1.00  0.00     0.036 A 
BRANCH  14  16
HETATM   16  S   UNL     1       9.940  14.289   3.856  1.00  0.00     0.106 S 
HETATM   17  O   UNL     1       9.383  12.946   3.800  1.00  0.00    -0.595 OA
HETATM   18  O   UNL     1      10.860  14.635   2.794  1.00  0.00    -0.595 OA
HETATM   19  O   UNL     1      10.459  14.622   5.179  1.00  0.00    -0.595 OA
ENDBRANCH  14  16
ENDBRANCH  12  13
TORSDOF 2
ENDMDL
MODEL 3
REMARK VINA RESULT:    -5.764     24.555     25.471
REMARK INTER + INTRA:          -6.860
REMARK INTER:                  -6.291
REMARK INTRA:                  -0.569
REMARK UNBOUND:                -0.422
REMARK  2 active torsions:
REMARK  status: ('A' for Active; 'I' for Inactive)
REMARK    1  A    between atoms: S_6  and  C_15 
REMARK    2  A    between atoms: C_9  and  C_19 
ROOT
HETATM    1  C   UNL     1       5.917  -4.204  23.672  1.00  0.00     0.051 C 
HETATM    2  C   UNL     1       6.172  -3.146  24.630  1.00  0.00     0.039 C 
HETATM    3  C   UNL     1       8.152  -3.328  22.832  1.00  0.00    -0.015 C 
HETATM    4  N   UNL     1       8.082  -1.583  24.151  1.00  0.00    -0.361 N 
ATOM      5  HN  UNL     1       8.459  -0.669  24.406  1.00  0.00     0.165 HD
HETATM    6  C   UNL     1       7.127  -2.087  24.873  1.00  0.00     0.090 C 
HETATM    7  H   UNL     1       8.471  -4.644  21.558  1.00  0.00     0.176 HD
HETATM    8 BR   UNL     1       3.882  -4.737  23.655  1.00  0.00    -0.048 Br
HETATM    9  C   UNL     1       6.672  -4.782  22.660  1.00  0.00     0.128 C 
HETATM   10  N   UNL     1       7.843  -4.304  22.250  1.00  0.00    -0.310 N 
HETATM   11 CL   UNL     1       6.225  -6.159  21.755  1.00  0.00    -0.062 Cl
HETATM   12  C   UNL     1       8.571  -2.192  23.126  1.00  0.00     0.078 C 
ENDROOT
BRANCH  12  13
HETATM   13  C   UNL     1       9.671  -1.706  22.241  1.00  0.00     0.068 A 
HETATM   14  C   UNL     1      10.131  -0.470  22.782  1.00  0.00     0.141 A 
HETATM   15  C   UNL     1      11.056  -1.606  22.644  1.00  0.00     0.036 A 
BRANCH  14  16
HETATM   16  S   UNL     1       9.249   0.762  21.694  1.00  0.00     0.106 S 
HETATM   17  O   UNL     1       8.093   1.145  22.490  1.00  0.00    -0.595 OA
HETATM   18  O   UNL     1      10.236   1.798  21.477  1.00  0.00    -0.595 OA
HETATM   19  O   UNL     1       8.875   0.075  20.462  1.00  0.00    -0.595 OA
ENDBRANCH  14  16
ENDBRANCH  12  13
TORSDOF 2
ENDMDL
MODEL 4
REMARK VINA RESULT:    -5.693     25.120     25.835
REMARK INTER + INTRA:          -6.781
REMARK INTER:                  -6.262
REMARK INTRA:                  -0.519
REMARK UNBOUND:                -0.422
REMARK  2 active torsions:
REMARK  status: ('A' for Active; 'I' for Inactive)
REMARK    1  A    between atoms: S_6  and  C_15 
REMARK    2  A    between atoms: C_9  and  C_19 
ROOT
HETATM    1  C   UNL     1       7.301  -2.843  24.668  1.00  0.00     0.051 C 
HETATM    2  C   UNL     1       7.615  -2.020  25.820  1.00  0.00     0.039 C 
HETATM    3  C   UNL     1       9.584  -1.939  24.002  1.00  0.00    -0.015 C 
HETATM    4  N   UNL     1       9.611  -0.501  25.651  1.00  0.00    -0.361 N 
ATOM      5  HN  UNL     1      10.040   0.318  26.083  1.00  0.00     0.165 HD
HETATM    6  C   UNL     1       8.629  -1.089  26.265  1.00  0.00     0.090 C 
HETATM    7  H   UNL     1       9.827  -2.982  22.481  1.00  0.00     0.176 HD
HETATM    8 BR   UNL     1       5.239  -3.246  24.565  1.00  0.00    -0.048 Br
HETATM    9  C   UNL     1       8.023  -3.243  23.551  1.00  0.00     0.128 C 
HETATM   10  N   UNL     1       9.220  -2.757  23.235  1.00  0.00    -0.310 N 
HETATM   11 CL   UNL     1       7.498  -4.377  22.388  1.00  0.00    -0.062 Cl
HETATM   12  C   UNL     1      10.066  -0.913  24.517  1.00  0.00     0.078 C 
ENDROOT
BRANCH  12  13
HETATM   13  C   UNL     1      11.192  -0.318  23.739  1.00  0.00     0.068 A 
HETATM   14  C   UNL     1      11.689   0.786  24.493  1.00  0.00     0.141 A 
HETATM   15  C   UNL     1      12.575  -0.341  24.161  1.00  0.00     0.036 A 
BRANCH  14  16
HETATM   16  S   UNL     1      10.862   2.221  23.636  1.00  0.00     0.106 S 
HETATM   17  O   UNL     1      10.668   1.736  22.278  1.00  0.00    -0.595 OA
HETATM   18  O   UNL     1       9.657   2.435  24.407  1.00  0.00    -0.595 OA
HETATM   19  O   UNL     1      11.776   3.357  23.696  1.00  0.00    -0.595 OA
ENDBRANCH  14  16
ENDBRANCH  12  13
TORSDOF 2
ENDMDL
MODEL 5
REMARK VINA RESULT:    -5.622     27.282     28.482
REMARK INTER + INTRA:          -6.701
REMARK INTER:                  -6.279
REMARK INTRA:                  -0.422
REMARK UNBOUND:                -0.422
REMARK  2 active torsions:
REMARK  status: ('A' for Active; 'I' for Inactive)
REMARK    1  A    between atoms: S_6  and  C_15 
REMARK    2  A    between atoms: C_9  and  C_19 
ROOT
HETATM    1  C   UNL     1       9.903  -0.764  24.502  1.00  0.00     0.051 C 
HETATM    2  C   UNL     1       8.916  -0.610  25.552  1.00  0.00     0.039 C 
HETATM    3  C   UNL     1       8.584  -2.923  24.238  1.00  0.00    -0.015 C 
HETATM    4  N   UNL     1       7.491  -2.606  26.107  1.00  0.00    -0.361 N 
ATOM      5  HN  UNL     1       6.880  -2.983  26.832  1.00  0.00     0.165 HD
HETATM    6  C   UNL     1       7.849  -1.359  26.179  1.00  0.00     0.090 C 
HETATM    7  H   UNL     1       9.385  -3.512  22.666  1.00  0.00     0.176 HD
HETATM    8 BR   UNL     1      11.548   0.510  24.815  1.00  0.00    -0.048 Br
HETATM    9  C   UNL     1      10.075  -1.685  23.476  1.00  0.00     0.128 C 
HETATM   10  N   UNL     1       9.362  -2.801  23.361  1.00  0.00    -0.310 N 
HETATM   11 CL   UNL     1      11.232  -1.568  22.226  1.00  0.00    -0.062 Cl
HETATM   12  C   UNL     1       7.877  -3.384  25.155  1.00  0.00     0.078 C 
ENDROOT
BRANCH  12  13
HETATM   13  C   UNL     1       7.516  -4.821  24.976  1.00  0.00     0.068 A 
HETATM   14  C   UNL     1       6.175  -4.978  25.435  1.00  0.00     0.141 A 
HETATM   15  C   UNL     1       6.522  -5.300  24.041  1.00  0.00     0.036 A 
BRANCH  14  16
HETATM   16  S   UNL     1       6.448  -5.672  27.144  1.00  0.00     0.106 S 
HETATM   17  O   UNL     1       7.870  -5.978  27.160  1.00  0.00    -0.595 OA
HETATM   18  O   UNL     1       6.024  -4.602  28.021  1.00  0.00    -0.595 OA
HETATM   19  O   UNL     1       5.620  -6.866  27.274  1.00  0.00    -0.595 OA
ENDBRANCH  14  16
ENDBRANCH  12  13
TORSDOF 2
ENDMDL
MODEL 6
REMARK VINA RESULT:    -5.576     25.238     25.910
REMARK INTER + INTRA:          -6.650
REMARK INTER:                  -6.153
REMARK INTRA:                  -0.497
REMARK UNBOUND:                -0.422
REMARK  2 active torsions:
REMARK  status: ('A' for Active; 'I' for Inactive)
REMARK    1  A    between atoms: S_6  and  C_15 
REMARK    2  A    between atoms: C_9  and  C_19 
ROOT
HETATM    1  C   UNL     1      25.546   1.453  14.167  1.00  0.00     0.051 C 
HETATM    2  C   UNL     1      25.304   2.272  15.339  1.00  0.00     0.039 C 
HETATM    3  C   UNL     1      23.822   0.038  15.390  1.00  0.00    -0.015 C 
HETATM    4  N   UNL     1      23.950   1.261  17.201  1.00  0.00    -0.361 N 
ATOM      5  HN  UNL     1      23.730   1.374  18.190  1.00  0.00     0.165 HD
HETATM    6  C   UNL     1      24.570   2.221  16.585  1.00  0.00     0.090 C 
HETATM    7  H   UNL     1      23.543  -1.223  14.052  1.00  0.00     0.176 HD
HETATM    8 BR   UNL     1      27.361   1.976  13.239  1.00  0.00    -0.048 Br
HETATM    9  C   UNL     1      24.950   0.306  13.660  1.00  0.00     0.128 C 
HETATM   10  N   UNL     1      24.044  -0.407  14.322  1.00  0.00    -0.310 N 
HETATM   11 CL   UNL     1      25.292  -0.400  12.143  1.00  0.00    -0.062 Cl
HETATM   12  C   UNL     1      23.601   0.170  16.610  1.00  0.00     0.078 C 
ENDROOT
BRANCH  12  13
HETATM   13  C   UNL     1      22.879  -0.984  17.221  1.00  0.00     0.068 A 
HETATM   14  C   UNL     1      23.835  -1.731  17.970  1.00  0.00     0.141 A 
HETATM   15  C   UNL     1      22.661  -1.149  18.641  1.00  0.00     0.036 A 
BRANCH  14  16
HETATM   16  S   UNL     1      24.232  -3.117  16.788  1.00  0.00     0.106 S 
HETATM   17  O   UNL     1      25.501  -2.709  16.205  1.00  0.00    -0.595 OA
HETATM   18  O   UNL     1      24.275  -4.290  17.634  1.00  0.00    -0.595 OA
HETATM   19  O   UNL     1      23.159  -3.177  15.800  1.00  0.00    -0.595 OA
ENDBRANCH  14  16
ENDBRANCH  12  13
TORSDOF 2
ENDMDL
MODEL 7
REMARK VINA RESULT:    -5.536     25.825     26.825
REMARK INTER + INTRA:          -6.605
REMARK INTER:                  -6.042
REMARK INTRA:                  -0.563
REMARK UNBOUND:                -0.422
REMARK  2 active torsions:
REMARK  status: ('A' for Active; 'I' for Inactive)
REMARK    1  A    between atoms: S_6  and  C_15 
REMARK    2  A    between atoms: C_9  and  C_19 
ROOT
HETATM    1  C   UNL     1       6.838  -5.057  24.393  1.00  0.00     0.051 C 
HETATM    2  C   UNL     1       7.255  -4.559  25.690  1.00  0.00     0.039 C 
HETATM    3  C   UNL     1       8.566  -3.321  23.706  1.00  0.00    -0.015 C 
HETATM    4  N   UNL     1       8.708  -2.508  25.734  1.00  0.00    -0.361 N 
ATOM      5  HN  UNL     1       9.033  -1.764  26.351  1.00  0.00     0.165 HD
HETATM    6  C   UNL     1       8.102  -3.532  26.255  1.00  0.00     0.090 C 
HETATM    7  H   UNL     1       8.619  -3.729  21.893  1.00  0.00     0.176 HD
HETATM    8 BR   UNL     1       4.984  -6.043  24.520  1.00  0.00    -0.048 Br
HETATM    9  C   UNL     1       7.296  -4.855  23.097  1.00  0.00     0.128 C 
HETATM   10  N   UNL     1       8.208  -3.944  22.773  1.00  0.00    -0.310 N 
HETATM   11 CL   UNL     1       6.754  -5.696  21.715  1.00  0.00    -0.062 Cl
HETATM   12  C   UNL     1       8.915  -2.397  24.466  1.00  0.00     0.078 C 
ENDROOT
BRANCH  12  13
HETATM   13  C   UNL     1       9.608  -1.272  23.771  1.00  0.00     0.068 A 
HETATM   14  C   UNL     1      10.103  -0.395  24.780  1.00  0.00     0.141 A 
HETATM   15  C   UNL     1      11.033  -1.031  23.832  1.00  0.00     0.036 A 
BRANCH  14  16
HETATM   16  S   UNL     1       8.798   0.937  24.786  1.00  0.00     0.106 S 
HETATM   17  O   UNL     1       8.006   0.626  25.966  1.00  0.00    -0.595 OA
HETATM   18  O   UNL     1       9.561   2.166  24.845  1.00  0.00    -0.595 OA
HETATM   19  O   UNL     1       8.032   0.810  23.551  1.00  0.00    -0.595 OA
ENDBRANCH  14  16
ENDBRANCH  12  13
TORSDOF 2
ENDMDL
MODEL 8
REMARK VINA RESULT:    -5.528     23.937     24.954
REMARK INTER + INTRA:          -6.596
REMARK INTER:                  -6.393
REMARK INTRA:                  -0.204
REMARK UNBOUND:                -0.422
REMARK  2 active torsions:
REMARK  status: ('A' for Active; 'I' for Inactive)
REMARK    1  A    between atoms: S_6  and  C_15 
REMARK    2  A    between atoms: C_9  and  C_19 
ROOT
HETATM    1  C   UNL     1       6.859  -3.719  22.755  1.00  0.00     0.051 C 
HETATM    2  C   UNL     1       6.407  -2.574  21.989  1.00  0.00     0.039 C 
HETATM    3  C   UNL     1       8.891  -2.200  22.926  1.00  0.00    -0.015 C 
HETATM    4  N   UNL     1       8.109  -0.811  21.425  1.00  0.00    -0.361 N 
ATOM      5  HN  UNL     1       8.277  -0.024  20.798  1.00  0.00     0.165 HD
HETATM    6  C   UNL     1       6.913  -1.313  21.492  1.00  0.00     0.090 C 
HETATM    7  H   UNL     1       9.851  -3.208  24.159  1.00  0.00     0.176 HD
HETATM    8 BR   UNL     1       5.711  -5.426  22.313  1.00  0.00    -0.048 Br
HETATM    9  C   UNL     1       7.975  -3.964  23.544  1.00  0.00     0.128 C 
HETATM   10  N   UNL     1       9.018  -3.144  23.619  1.00  0.00    -0.310 N 
HETATM   11 CL   UNL     1       8.218  -5.351  24.511  1.00  0.00    -0.062 Cl
HETATM   12  C   UNL     1       9.093  -1.269  22.121  1.00  0.00     0.078 C 
ENDROOT
BRANCH  12  13
HETATM   13  C   UNL     1      10.496  -0.760  22.126  1.00  0.00     0.068 A 
HETATM   14  C   UNL     1      10.722  -0.160  23.399  1.00  0.00     0.141 A 
HETATM   15  C   UNL     1      11.552  -1.292  22.958  1.00  0.00     0.036 A 
BRANCH  14  16
HETATM   16  S   UNL     1      10.488   1.648  23.003  1.00  0.00     0.106 S 
HETATM   17  O   UNL     1       9.133   1.918  23.459  1.00  0.00    -0.595 OA
HETATM   18  O   UNL     1      11.544   2.302  23.744  1.00  0.00    -0.595 OA
HETATM   19  O   UNL     1      10.632   1.806  21.560  1.00  0.00    -0.595 OA
ENDBRANCH  14  16
ENDBRANCH  12  13
TORSDOF 2
ENDMDL
MODEL 9
REMARK VINA RESULT:    -5.425     26.791     27.676
REMARK INTER + INTRA:          -6.482
REMARK INTER:                  -6.005
REMARK INTRA:                  -0.477
REMARK UNBOUND:                -0.422
REMARK  2 active torsions:
REMARK  status: ('A' for Active; 'I' for Inactive)
REMARK    1  A    between atoms: S_6  and  C_15 
REMARK    2  A    between atoms: C_9  and  C_19 
ROOT
HETATM    1  C   UNL     1       8.838  -0.907  23.954  1.00  0.00     0.051 C 
HETATM    2  C   UNL     1       7.451  -0.867  24.375  1.00  0.00     0.039 C 
HETATM    3  C   UNL     1       8.077  -3.247  23.309  1.00  0.00    -0.015 C 
HETATM    4  N   UNL     1       6.176  -3.034  24.373  1.00  0.00    -0.361 N 
ATOM      5  HN  UNL     1       5.335  -3.474  24.747  1.00  0.00     0.165 HD
HETATM    6  C   UNL     1       6.307  -1.746  24.481  1.00  0.00     0.090 C 
HETATM    7  H   UNL     1       9.609  -3.760  22.390  1.00  0.00     0.176 HD
HETATM    8 BR   UNL     1       9.957   0.609  24.891  1.00  0.00    -0.048 Br
HETATM    9  C   UNL     1       9.597  -1.825  23.240  1.00  0.00     0.128 C 
HETATM   10  N   UNL     1       9.166  -3.038  22.910  1.00  0.00    -0.310 N 
HETATM   11 CL   UNL     1      11.198  -1.579  22.701  1.00  0.00    -0.062 Cl
HETATM   12  C   UNL     1       7.067  -3.777  23.812  1.00  0.00     0.078 C 
ENDROOT
BRANCH  12  13
HETATM   13  C   UNL     1       7.008  -5.257  23.628  1.00  0.00     0.068 A 
HETATM   14  C   UNL     1       5.695  -5.572  23.169  1.00  0.00     0.141 A 
HETATM   15  C   UNL     1       6.868  -5.914  22.347  1.00  0.00     0.036 A 
BRANCH  14  16
HETATM   16  S   UNL     1       4.875  -6.133  24.747  1.00  0.00     0.106 S 
HETATM   17  O   UNL     1       3.801  -5.169  24.928  1.00  0.00    -0.595 OA
HETATM   18  O   UNL     1       4.462  -7.489  24.456  1.00  0.00    -0.595 OA
HETATM   19  O   UNL     1       5.871  -6.065  25.811  1.00  0.00    -0.595 OA
ENDBRANCH  14  16
ENDBRANCH  12  13
TORSDOF 2
ENDMDL
