stable:False satoms:13 tatoms:24 sratio:0.5416666666666666
  -OEChem-08062411443D

 33 34  0     1  0  0  0  0  0999 V2000
   -6.3939   -4.8808  -26.7475 Cl  0  0  0  0  0  0  0  0  0  0  0  0
   -8.1773   -4.4879  -26.1653 S   0  0  0  0  0  0  0  0  0  0  0  0
   -8.8367   -5.7366  -25.9623 O   0  0  0  0  0  0  0  0  0  0  0  0
   -8.7301   -3.6803  -27.2056 O   0  0  0  0  0  0  0  0  0  0  0  0
   -7.9267   -3.7275  -24.7687 N   0  0  0  0  0  0  0  0  0  0  0  0
   -8.7844   -2.9740  -24.2475 C   0  0  0  0  0  0  0  0  0  0  0  0
   -9.3125   -2.2095  -23.7133 C   0  0  0  0  0  0  0  0  0  0  0  0
  -10.0624   -1.4999  -22.9120 C   0  0  3  0  0  0  0  0  0  0  0  0
  -11.9498    0.5007  -23.3773 H   0  0  0  0  0  0  0  0  0  0  0  0
  -12.5072   -0.3880  -23.7083 C   0  0  0  0  0  0  0  0  0  0  0  0
  -13.5790   -0.1476  -23.7670 H   0  0  0  0  0  0  0  0  0  0  0  0
  -12.2971   -1.5039  -22.7274 C   0  0  0  0  0  0  0  0  0  0  0  0
  -11.3714   -1.8872  -22.5174 C   0  0  0  0  0  0  0  0  0  0  0  0
   -9.8470   -0.5050  -22.2001 N   0  0  0  0  0  0  0  0  0  0  0  0
   -8.9557    0.1608  -21.4103 C   0  0  0  0  0  0  0  0  0  0  0  0
   -9.3025    1.1604  -20.8624 O   0  0  0  0  0  0  0  0  0  0  0  0
   -7.6681   -0.3731  -21.3482 N   0  0  0  0  0  0  0  0  0  0  0  0
   -6.8380    0.1359  -20.5224 C   0  0  0  0  0  0  0  0  0  0  0  0
   -7.1272    0.1211  -18.9237 S   0  3  1  0  0  0  0  0  0  0  0  0
   -6.1017    0.6922  -18.0189 N   0  0  0  0  0  0  0  0  0  0  0  0
   -5.4613    1.1271  -18.7600 C   0  0  0  0  0  0  0  0  0  0  0  0
   -5.1087    1.2726  -19.8981 C   0  0  0  0  0  0  0  0  0  0  0  0
   -5.6401    0.7924  -20.9285 C   0  0  0  0  0  0  0  0  0  0  0  0
   -5.3199    0.8421  -21.9390 H   0  0  0  0  0  0  0  0  0  0  0  0
   -7.1086   -3.1677  -24.9002 H   0  0  0  0  0  0  0  0  0  0  0  0
  -10.4470   -0.8857  -23.7396 H   0  0  0  0  0  0  0  0  0  0  0  0
  -12.1465   -0.6988  -24.6999 H   0  0  0  0  0  0  0  0  0  0  0  0
  -13.1569   -1.9194  -22.2228 H   0  0  0  0  0  0  0  0  0  0  0  0
  -11.3940   -2.7526  -21.8716 H   0  0  0  0  0  0  0  0  0  0  0  0
  -10.6846    0.0412  -22.2103 H   0  0  0  0  0  0  0  0  0  0  0  0
   -7.4017   -1.1366  -21.9366 H   0  0  0  0  0  0  0  0  0  0  0  0
   -5.6355   -0.0130  -17.4849 H   0  0  0  0  0  0  0  0  0  0  0  0
   -4.2342    1.8871  -20.0531 H   0  0  0  0  0  0  0  0  0  0  0  0
 20 21  1  0  0  0  0
 19 20  1  0  0  0  0
 19 21  1  0  0  0  0
 21 22  2  0  0  0  0
 18 19  1  0  0  0  0
 22 23  1  0  0  0  0
 18 23  2  0  0  0  0
 17 18  1  0  0  0  0
 23 24  1  0  0  0  0
 15 16  2  0  0  0  0
 15 17  1  0  0  0  0
 14 15  1  0  0  0  0
  8 14  1  0  0  0  0
  8 13  1  0  0  0  0
 12 13  2  0  0  0  0
  7  8  1  0  0  0  0
 10 12  1  0  0  0  0
  6  7  3  0  0  0  0
 10 11  1  0  0  0  0
  9 10  1  0  0  0  0
  5  6  1  0  0  0  0
  2  5  1  0  0  0  0
  2  3  2  0  0  0  0
  1  2  1  0  0  0  0
  2  4  2  0  0  0  0
  5 25  1  0  0  0  0
  8 26  1  0  0  0  0
 10 27  1  0  0  0  0
 12 28  1  0  0  0  0
 13 29  1  0  0  0  0
 14 30  1  0  0  0  0
 17 31  1  0  0  0  0
 20 32  1  0  0  0  0
 22 33  1  0  0  0  0
M  CHG  1  19   1
M  END
> <Chemgauss4>
-7.987395

$$$$
