stable:False satoms:13 tatoms:24 sratio:0.5416666666666666
  -OEChem-08062411443D

 33 34  0     1  0  0  0  0  0999 V2000
    6.1308   -5.3670   26.2745 Cl  0  0  0  0  0  0  0  0  0  0  0  0
    7.9001   -4.7027   25.9555 S   0  0  0  0  0  0  0  0  0  0  0  0
    8.7594   -5.8359   25.8423 O   0  0  0  0  0  0  0  0  0  0  0  0
    8.1752   -3.8507   27.0685 O   0  0  0  0  0  0  0  0  0  0  0  0
    7.7386   -3.9504   24.5415 N   0  0  0  0  0  0  0  0  0  0  0  0
    8.5397   -3.0662   24.1524 C   0  0  0  0  0  0  0  0  0  0  0  0
    9.0185   -2.2189   23.7033 C   0  0  0  0  0  0  0  0  0  0  0  0
    9.7601   -1.3864   23.0213 C   0  0  3  0  0  0  0  0  0  0  0  0
   11.2455    0.8553   23.7625 H   0  0  0  0  0  0  0  0  0  0  0  0
   11.8763    0.0491   24.1651 C   0  0  0  0  0  0  0  0  0  0  0  0
   12.8816    0.4418   24.3777 H   0  0  0  0  0  0  0  0  0  0  0  0
   11.9742   -1.0593   23.1582 C   0  0  0  0  0  0  0  0  0  0  0  0
   11.1544   -1.5679   22.8159 C   0  0  0  0  0  0  0  0  0  0  0  0
    9.5019   -0.4152   22.2913 N   0  0  0  0  0  0  0  0  0  0  0  0
    8.6417    0.1339   21.3856 C   0  0  0  0  0  0  0  0  0  0  0  0
    8.9100    1.1876   20.8983 O   0  0  0  0  0  0  0  0  0  0  0  0
    7.4692   -0.5805   21.1371 N   0  0  0  0  0  0  0  0  0  0  0  0
    6.6973   -0.1765   20.2038 C   0  0  0  0  0  0  0  0  0  0  0  0
    7.2076   -0.1066   18.6628 S   0  3  1  0  0  0  0  0  0  0  0  0
    6.2464    0.3323   17.6237 N   0  0  0  0  0  0  0  0  0  0  0  0
    5.4507    0.6494   18.2679 C   0  0  0  0  0  0  0  0  0  0  0  0
    4.9238    0.7117   19.3446 C   0  0  0  0  0  0  0  0  0  0  0  0
    5.3703    0.2871   20.4378 C   0  0  0  0  0  0  0  0  0  0  0  0
    4.9073    0.2628   21.3924 H   0  0  0  0  0  0  0  0  0  0  0  0
    6.8362   -3.5197   24.5576 H   0  0  0  0  0  0  0  0  0  0  0  0
    9.9290   -0.7448   23.8986 H   0  0  0  0  0  0  0  0  0  0  0  0
   11.4298   -0.3372   25.0932 H   0  0  0  0  0  0  0  0  0  0  0  0
   12.9484   -1.3312   22.7796 H   0  0  0  0  0  0  0  0  0  0  0  0
   11.3957   -2.4034   22.1755 H   0  0  0  0  0  0  0  0  0  0  0  0
   10.2393    0.2470   22.4240 H   0  0  0  0  0  0  0  0  0  0  0  0
    7.2389   -1.3899   21.6773 H   0  0  0  0  0  0  0  0  0  0  0  0
    5.9696   -0.4191   17.0247 H   0  0  0  0  0  0  0  0  0  0  0  0
    3.9548    1.1876   19.3761 H   0  0  0  0  0  0  0  0  0  0  0  0
 20 21  1  0  0  0  0
 19 20  1  0  0  0  0
 19 21  1  0  0  0  0
 21 22  2  0  0  0  0
 18 19  1  0  0  0  0
 22 23  1  0  0  0  0
 18 23  2  0  0  0  0
 17 18  1  0  0  0  0
 23 24  1  0  0  0  0
 15 16  2  0  0  0  0
 15 17  1  0  0  0  0
 14 15  1  0  0  0  0
  8 14  1  0  0  0  0
  8 13  1  0  0  0  0
 12 13  2  0  0  0  0
  7  8  1  0  0  0  0
 10 12  1  0  0  0  0
  6  7  3  0  0  0  0
 10 11  1  0  0  0  0
  9 10  1  0  0  0  0
  5  6  1  0  0  0  0
  2  5  1  0  0  0  0
  2  3  2  0  0  0  0
  1  2  1  0  0  0  0
  2  4  2  0  0  0  0
  5 25  1  0  0  0  0
  8 26  1  0  0  0  0
 10 27  1  0  0  0  0
 12 28  1  0  0  0  0
 13 29  1  0  0  0  0
 14 30  1  0  0  0  0
 17 31  1  0  0  0  0
 20 32  1  0  0  0  0
 22 33  1  0  0  0  0
M  CHG  1  19   1
M  END
> <Chemgauss4>
-7.922551

$$$$
