MODEL 1
REMARK VINA RESULT:    -6.725      0.000      0.000
REMARK INTER + INTRA:         -10.955
REMARK INTER:                  -9.870
REMARK INTRA:                  -1.085
REMARK UNBOUND:                -1.085
REMARK  8 active torsions:
REMARK  status: ('A' for Active; 'I' for Inactive)
REMARK    1  A    between atoms: S_2  and  N_5 
REMARK    2  A    between atoms: N_5  and  C_7 
REMARK    3  A    between atoms: C_7  and  C_8 
REMARK    4  A    between atoms: C_9  and  C_14 
REMARK    5  A    between atoms: C_9  and  C_10 
REMARK    6  A    between atoms: C_10  and  C_11 
REMARK    7  A    between atoms: C_15  and  C_16 
REMARK       I    between atoms: C_16  and  N_18 
REMARK    8  A    between atoms: N_18  and  C_20 
ROOT
HETATM    1  C   UNL     1       7.592  -4.467  25.692  1.00  0.00     0.040 A 
HETATM    2  C   UNL     1       6.798  -4.120  24.611  1.00  0.00     0.065 A 
HETATM    3  C   UNL     1       7.794  -3.471  24.501  1.00  0.00     0.049 A 
ENDROOT
BRANCH   3   4
HETATM    4  C   UNL     1       8.764  -2.510  23.971  1.00  0.00     0.255 C 
HETATM    5  O   UNL     1       8.922  -2.428  22.795  1.00  0.00    -0.268 OA
HETATM    6  N   UNL     1       9.330  -1.842  24.917  1.00  0.00    -0.321 N 
ATOM      7  HN  UNL     1       9.100  -2.055  25.887  1.00  0.00     0.169 HD
BRANCH   6   8
HETATM    8  C   UNL     1      10.173  -0.921  24.662  1.00  0.00     0.056 A 
HETATM    9  C   UNL     1      11.409  -0.790  24.231  1.00  0.00     0.117 A 
HETATM   10  N   UNL     1      12.392  -0.157  23.859  1.00  0.00    -0.373 N 
HETATM   11  C   UNL     1      11.857   1.031  24.070  1.00  0.00     0.088 A 
ATOM     12  HN  UNL     1      13.305  -0.447  23.510  1.00  0.00     0.164 HD
HETATM   13  C   UNL     1      10.748   1.354  24.450  1.00  0.00     0.026 A 
HETATM   14  C   UNL     1       9.694   0.573  24.791  1.00  0.00    -0.033 A 
HETATM   15  C   UNL     1       8.383   0.941  25.214  1.00  0.00     0.050 C 
ENDBRANCH   6   8
ENDBRANCH   3   4
BRANCH   1  16
HETATM   16  C   UNL     1       7.774  -5.182  26.736  1.00  0.00    -0.022 C 
BRANCH  16  17
HETATM   17  N   UNL     1       7.605  -5.984  27.553  1.00  0.00    -0.249 N 
ATOM     18  HN  UNL     1       8.354  -6.673  27.621  1.00  0.00     0.188 HD
BRANCH  17  19
HETATM   19  S   UNL     1       6.389  -6.215  28.613  1.00  0.00     0.233 S 
HETATM   20  C   UNL     1       4.934  -5.977  27.699  1.00  0.00     0.186 C 
HETATM   21  O   UNL     1       6.361  -7.560  29.119  1.00  0.00    -0.205 OA
HETATM   22  O   UNL     1       6.429  -5.243  29.639  1.00  0.00    -0.205 OA
ENDBRANCH  17  19
ENDBRANCH  16  17
ENDBRANCH   1  16
BRANCH   2  23
HETATM   23  C   UNL     1       5.417  -3.229  24.760  1.00  0.00    -0.013 C 
HETATM   24  C   UNL     1       4.535  -3.139  24.764  1.00  0.00     0.008 C 
ENDBRANCH   2  23
BRANCH   2  25
HETATM   25  C   UNL     1       6.296  -4.991  23.541  1.00  0.00    -0.003 C 
BRANCH  25  26
HETATM   26  C   UNL     1       6.969  -5.513  22.749  1.00  0.00    -0.013 C 
HETATM   27  C   UNL     1       7.169  -6.015  21.839  1.00  0.00     0.011 C 
ENDBRANCH  25  26
ENDBRANCH   2  25
TORSDOF 8
ENDMDL
MODEL 2
REMARK VINA RESULT:    -6.568      4.139      6.182
REMARK INTER + INTRA:         -10.725
REMARK INTER:                  -9.657
REMARK INTRA:                  -1.068
REMARK UNBOUND:                -1.085
REMARK  8 active torsions:
REMARK  status: ('A' for Active; 'I' for Inactive)
REMARK    1  A    between atoms: S_2  and  N_5 
REMARK    2  A    between atoms: N_5  and  C_7 
REMARK    3  A    between atoms: C_7  and  C_8 
REMARK    4  A    between atoms: C_9  and  C_14 
REMARK    5  A    between atoms: C_9  and  C_10 
REMARK    6  A    between atoms: C_10  and  C_11 
REMARK    7  A    between atoms: C_15  and  C_16 
REMARK       I    between atoms: C_16  and  N_18 
REMARK    8  A    between atoms: N_18  and  C_20 
ROOT
HETATM    1  C   UNL     1       8.978  -2.336  23.283  1.00  0.00     0.040 A 
HETATM    2  C   UNL     1       9.792  -1.227  23.449  1.00  0.00     0.065 A 
HETATM    3  C   UNL     1       9.119  -0.993  22.492  1.00  0.00     0.049 A 
ENDROOT
BRANCH   3   4
HETATM    4  C   UNL     1       8.571  -0.292  21.327  1.00  0.00     0.255 C 
HETATM    5  O   UNL     1       9.278   0.421  20.689  1.00  0.00    -0.268 OA
HETATM    6  N   UNL     1       7.328  -0.579  21.148  1.00  0.00    -0.321 N 
ATOM      7  HN  UNL     1       6.855  -1.194  21.809  1.00  0.00     0.169 HD
BRANCH   6   8
HETATM    8  C   UNL     1       6.678  -0.107  20.158  1.00  0.00     0.056 A 
HETATM    9  C   UNL     1       6.359  -0.435  18.925  1.00  0.00     0.117 A 
HETATM   10  N   UNL     1       5.787  -0.284  17.850  1.00  0.00    -0.373 N 
HETATM   11  C   UNL     1       5.249   0.880  18.163  1.00  0.00     0.088 A 
ATOM     12  HN  UNL     1       5.742  -0.858  17.009  1.00  0.00     0.164 HD
HETATM   13  C   UNL     1       5.283   1.527  19.192  1.00  0.00     0.026 A 
HETATM   14  C   UNL     1       5.907   1.251  20.363  1.00  0.00    -0.033 A 
HETATM   15  C   UNL     1       5.934   1.990  21.582  1.00  0.00     0.050 C 
ENDBRANCH   6   8
ENDBRANCH   3   4
BRANCH   1  16
HETATM   16  C   UNL     1       8.584  -3.480  23.693  1.00  0.00    -0.022 C 
BRANCH  16  17
HETATM   17  N   UNL     1       7.967  -4.456  23.781  1.00  0.00    -0.249 N 
ATOM     18  HN  UNL     1       8.139  -4.982  24.637  1.00  0.00     0.188 HD
BRANCH  17  19
HETATM   19  S   UNL     1       6.874  -5.142  22.786  1.00  0.00     0.233 S 
HETATM   20  C   UNL     1       5.587  -5.677  23.819  1.00  0.00     0.186 C 
HETATM   21  O   UNL     1       6.314  -4.194  21.862  1.00  0.00    -0.205 OA
HETATM   22  O   UNL     1       7.424  -6.275  22.144  1.00  0.00    -0.205 OA
ENDBRANCH  17  19
ENDBRANCH  16  17
ENDBRANCH   1  16
BRANCH   2  23
HETATM   23  C   UNL     1      11.415  -1.252  23.153  1.00  0.00    -0.013 C 
HETATM   24  C   UNL     1      12.199  -1.662  23.096  1.00  0.00     0.008 C 
ENDBRANCH   2  23
BRANCH   2  25
HETATM   25  C   UNL     1       9.867  -0.326  24.606  1.00  0.00    -0.003 C 
BRANCH  25  26
HETATM   26  C   UNL     1       9.757   0.829  24.547  1.00  0.00    -0.013 C 
HETATM   27  C   UNL     1      10.103   1.822  24.424  1.00  0.00     0.011 C 
ENDBRANCH  25  26
ENDBRANCH   2  25
TORSDOF 8
ENDMDL
MODEL 3
REMARK VINA RESULT:    -6.418      3.968      5.670
REMARK INTER + INTRA:         -10.505
REMARK INTER:                  -9.443
REMARK INTRA:                  -1.062
REMARK UNBOUND:                -1.085
REMARK  8 active torsions:
REMARK  status: ('A' for Active; 'I' for Inactive)
REMARK    1  A    between atoms: S_2  and  N_5 
REMARK    2  A    between atoms: N_5  and  C_7 
REMARK    3  A    between atoms: C_7  and  C_8 
REMARK    4  A    between atoms: C_9  and  C_14 
REMARK    5  A    between atoms: C_9  and  C_10 
REMARK    6  A    between atoms: C_10  and  C_11 
REMARK    7  A    between atoms: C_15  and  C_16 
REMARK       I    between atoms: C_16  and  N_18 
REMARK    8  A    between atoms: N_18  and  C_20 
ROOT
HETATM    1  C   UNL     1       9.059  -2.275  23.421  1.00  0.00     0.040 A 
HETATM    2  C   UNL     1       9.856  -1.149  23.541  1.00  0.00     0.065 A 
HETATM    3  C   UNL     1       9.192  -0.971  22.565  1.00  0.00     0.049 A 
ENDROOT
BRANCH   3   4
HETATM    4  C   UNL     1       8.648  -0.337  21.362  1.00  0.00     0.255 C 
HETATM    5  O   UNL     1       9.368   0.297  20.659  1.00  0.00    -0.268 OA
HETATM    6  N   UNL     1       7.390  -0.585  21.227  1.00  0.00    -0.321 N 
ATOM      7  HN  UNL     1       6.908  -1.130  21.941  1.00  0.00     0.169 HD
BRANCH   6   8
HETATM    8  C   UNL     1       6.739  -0.161  20.216  1.00  0.00     0.056 A 
HETATM    9  C   UNL     1       6.379  -0.568  19.018  1.00  0.00     0.117 A 
HETATM   10  N   UNL     1       5.790  -0.473  17.947  1.00  0.00    -0.373 N 
HETATM   11  C   UNL     1       5.309   0.733  18.179  1.00  0.00     0.088 A 
ATOM     12  HN  UNL     1       5.702  -1.107  17.152  1.00  0.00     0.164 HD
HETATM   13  C   UNL     1       5.393   1.455  19.155  1.00  0.00     0.026 A 
HETATM   14  C   UNL     1       6.030   1.240  20.331  1.00  0.00    -0.033 A 
HETATM   15  C   UNL     1       6.116   2.068  21.489  1.00  0.00     0.050 C 
ENDBRANCH   6   8
ENDBRANCH   3   4
BRANCH   1  16
HETATM   16  C   UNL     1       8.676  -3.403  23.884  1.00  0.00    -0.022 C 
BRANCH  16  17
HETATM   17  N   UNL     1       8.205  -4.191  24.590  1.00  0.00    -0.249 N 
ATOM     18  HN  UNL     1       7.957  -5.067  24.130  1.00  0.00     0.188 HD
BRANCH  17  19
HETATM   19  S   UNL     1       7.867  -4.156  26.184  1.00  0.00     0.233 S 
HETATM   20  C   UNL     1       6.636  -5.356  26.417  1.00  0.00     0.186 C 
HETATM   21  O   UNL     1       8.996  -4.540  26.985  1.00  0.00    -0.205 OA
HETATM   22  O   UNL     1       7.333  -2.900  26.554  1.00  0.00    -0.205 OA
ENDBRANCH  17  19
ENDBRANCH  16  17
ENDBRANCH   1  16
BRANCH   2  23
HETATM   23  C   UNL     1      11.483  -1.166  23.263  1.00  0.00    -0.013 C 
HETATM   24  C   UNL     1      12.252  -1.581  23.114  1.00  0.00     0.008 C 
ENDBRANCH   2  23
BRANCH   2  25
HETATM   25  C   UNL     1       9.907  -0.191  24.652  1.00  0.00    -0.003 C 
BRANCH  25  26
HETATM   26  C   UNL     1       8.995   0.420  25.034  1.00  0.00    -0.013 C 
HETATM   27  C   UNL     1       8.403   1.290  25.154  1.00  0.00     0.011 C 
ENDBRANCH  25  26
ENDBRANCH   2  25
TORSDOF 8
ENDMDL
MODEL 4
REMARK VINA RESULT:    -6.158      4.025      7.480
REMARK INTER + INTRA:         -10.123
REMARK INTER:                  -8.879
REMARK INTRA:                  -1.244
REMARK UNBOUND:                -1.085
REMARK  8 active torsions:
REMARK  status: ('A' for Active; 'I' for Inactive)
REMARK    1  A    between atoms: S_2  and  N_5 
REMARK    2  A    between atoms: N_5  and  C_7 
REMARK    3  A    between atoms: C_7  and  C_8 
REMARK    4  A    between atoms: C_9  and  C_14 
REMARK    5  A    between atoms: C_9  and  C_10 
REMARK    6  A    between atoms: C_10  and  C_11 
REMARK    7  A    between atoms: C_15  and  C_16 
REMARK       I    between atoms: C_16  and  N_18 
REMARK    8  A    between atoms: N_18  and  C_20 
ROOT
HETATM    1  C   UNL     1       8.184  -0.456  21.055  1.00  0.00     0.040 A 
HETATM    2  C   UNL     1       6.951   0.050  20.679  1.00  0.00     0.065 A 
HETATM    3  C   UNL     1       6.736  -1.051  21.086  1.00  0.00     0.049 A 
ENDROOT
BRANCH   3   4
HETATM    4  C   UNL     1       6.012  -2.270  21.454  1.00  0.00     0.255 C 
HETATM    5  O   UNL     1       5.570  -2.968  20.599  1.00  0.00    -0.268 OA
HETATM    6  N   UNL     1       5.968  -2.423  22.734  1.00  0.00    -0.321 N 
ATOM      7  HN  UNL     1       6.378  -1.711  23.337  1.00  0.00     0.169 HD
BRANCH   6   8
HETATM    8  C   UNL     1       5.422  -3.449  23.257  1.00  0.00     0.056 A 
HETATM    9  C   UNL     1       4.221  -3.907  23.537  1.00  0.00     0.117 A 
HETATM   10  N   UNL     1       3.420  -4.750  23.929  1.00  0.00    -0.373 N 
HETATM   11  C   UNL     1       4.336  -5.634  24.278  1.00  0.00     0.088 A 
ATOM     12  HN  UNL     1       2.401  -4.762  23.971  1.00  0.00     0.164 HD
HETATM   13  C   UNL     1       5.548  -5.612  24.180  1.00  0.00     0.026 A 
HETATM   14  C   UNL     1       6.354  -4.646  23.678  1.00  0.00    -0.033 A 
HETATM   15  C   UNL     1       7.773  -4.621  23.536  1.00  0.00     0.050 C 
ENDBRANCH   6   8
ENDBRANCH   3   4
BRANCH   1  16
HETATM   16  C   UNL     1       9.442  -0.286  21.202  1.00  0.00    -0.022 C 
BRANCH  16  17
HETATM   17  N   UNL     1      10.504  -0.335  21.660  1.00  0.00    -0.249 N 
ATOM     18  HN  UNL     1      11.187   0.261  21.192  1.00  0.00     0.188 HD
BRANCH  17  19
HETATM   19  S   UNL     1      11.108  -1.182  22.914  1.00  0.00     0.233 S 
HETATM   20  C   UNL     1      11.577   0.007  24.086  1.00  0.00     0.186 C 
HETATM   21  O   UNL     1      10.114  -2.020  23.529  1.00  0.00    -0.205 OA
HETATM   22  O   UNL     1      12.263  -1.897  22.525  1.00  0.00    -0.205 OA
ENDBRANCH  17  19
ENDBRANCH  16  17
ENDBRANCH   1  16
BRANCH   2  23
HETATM   23  C   UNL     1       6.520   0.291  19.104  1.00  0.00    -0.013 C 
HETATM   24  C   UNL     1       6.026   0.120  18.388  1.00  0.00     0.008 C 
ENDBRANCH   2  23
BRANCH   2  25
HETATM   25  C   UNL     1       6.263   1.237  21.202  1.00  0.00    -0.003 C 
BRANCH  25  26
HETATM   26  C   UNL     1       6.796   2.227  21.499  1.00  0.00    -0.013 C 
HETATM   27  C   UNL     1       7.277   2.898  22.162  1.00  0.00     0.011 C 
ENDBRANCH  25  26
ENDBRANCH   2  25
TORSDOF 8
ENDMDL
MODEL 5
REMARK VINA RESULT:    -6.134      3.778      5.670
REMARK INTER + INTRA:         -10.088
REMARK INTER:                  -8.756
REMARK INTRA:                  -1.332
REMARK UNBOUND:                -1.085
REMARK  8 active torsions:
REMARK  status: ('A' for Active; 'I' for Inactive)
REMARK    1  A    between atoms: S_2  and  N_5 
REMARK    2  A    between atoms: N_5  and  C_7 
REMARK    3  A    between atoms: C_7  and  C_8 
REMARK    4  A    between atoms: C_9  and  C_14 
REMARK    5  A    between atoms: C_9  and  C_10 
REMARK    6  A    between atoms: C_10  and  C_11 
REMARK    7  A    between atoms: C_15  and  C_16 
REMARK       I    between atoms: C_16  and  N_18 
REMARK    8  A    between atoms: N_18  and  C_20 
ROOT
HETATM    1  C   UNL     1       8.512  -0.437  22.623  1.00  0.00     0.040 A 
HETATM    2  C   UNL     1       9.587  -0.627  23.476  1.00  0.00     0.065 A 
HETATM    3  C   UNL     1       9.718   0.473  23.032  1.00  0.00     0.049 A 
ENDROOT
BRANCH   3   4
HETATM    4  C   UNL     1      10.287   1.798  22.771  1.00  0.00     0.255 C 
HETATM    5  O   UNL     1      10.372   2.187  21.650  1.00  0.00    -0.268 OA
HETATM    6  N   UNL     1      10.623   2.390  23.865  1.00  0.00    -0.321 N 
ATOM      7  HN  UNL     1      10.508   1.902  24.754  1.00  0.00     0.169 HD
BRANCH   6   8
HETATM    8  C   UNL     1      11.095   3.573  23.858  1.00  0.00     0.056 A 
HETATM    9  C   UNL     1      12.237   4.192  23.649  1.00  0.00     0.117 A 
HETATM   10  N   UNL     1      12.956   5.177  23.516  1.00  0.00    -0.373 N 
HETATM   11  C   UNL     1      12.005   6.055  23.775  1.00  0.00     0.088 A 
ATOM     12  HN  UNL     1      13.944   5.281  23.286  1.00  0.00     0.164 HD
HETATM   13  C   UNL     1      10.821   5.908  24.007  1.00  0.00     0.026 A 
HETATM   14  C   UNL     1      10.093   4.768  24.081  1.00  0.00    -0.033 A 
HETATM   15  C   UNL     1       8.701   4.586  24.329  1.00  0.00     0.050 C 
ENDBRANCH   6   8
ENDBRANCH   3   4
BRANCH   1  16
HETATM   16  C   UNL     1       7.425  -0.875  22.111  1.00  0.00    -0.022 C 
BRANCH  16  17
HETATM   17  N   UNL     1       6.603  -1.609  21.757  1.00  0.00    -0.249 N 
ATOM     18  HN  UNL     1       6.145  -1.333  20.889  1.00  0.00     0.188 HD
BRANCH  17  19
HETATM   19  S   UNL     1       6.044  -3.001  22.392  1.00  0.00     0.233 S 
HETATM   20  C   UNL     1       7.454  -3.968  22.687  1.00  0.00     0.186 C 
HETATM   21  O   UNL     1       5.395  -2.796  23.658  1.00  0.00    -0.205 OA
HETATM   22  O   UNL     1       5.228  -3.684  21.461  1.00  0.00    -0.205 OA
ENDBRANCH  17  19
ENDBRANCH  16  17
ENDBRANCH   1  16
BRANCH   2  23
HETATM   23  C   UNL     1      10.834  -1.653  23.137  1.00  0.00    -0.013 C 
HETATM   24  C   UNL     1      11.673  -1.823  22.909  1.00  0.00     0.008 C 
ENDBRANCH   2  23
BRANCH   2  25
HETATM   25  C   UNL     1       9.558  -0.902  24.918  1.00  0.00    -0.003 C 
BRANCH  25  26
HETATM   26  C   UNL     1       8.813  -1.631  25.433  1.00  0.00    -0.013 C 
HETATM   27  C   UNL     1       8.536  -2.496  25.976  1.00  0.00     0.011 C 
ENDBRANCH  25  26
ENDBRANCH   2  25
TORSDOF 8
ENDMDL
MODEL 6
REMARK VINA RESULT:    -6.063     24.323     26.872
REMARK INTER + INTRA:          -9.984
REMARK INTER:                  -8.745
REMARK INTRA:                  -1.238
REMARK UNBOUND:                -1.085
REMARK  8 active torsions:
REMARK  status: ('A' for Active; 'I' for Inactive)
REMARK    1  A    between atoms: S_2  and  N_5 
REMARK    2  A    between atoms: N_5  and  C_7 
REMARK    3  A    between atoms: C_7  and  C_8 
REMARK    4  A    between atoms: C_9  and  C_14 
REMARK    5  A    between atoms: C_9  and  C_10 
REMARK    6  A    between atoms: C_10  and  C_11 
REMARK    7  A    between atoms: C_15  and  C_16 
REMARK       I    between atoms: C_16  and  N_18 
REMARK    8  A    between atoms: N_18  and  C_20 
ROOT
HETATM    1  C   UNL     1       7.560  11.992   3.331  1.00  0.00     0.040 A 
HETATM    2  C   UNL     1       6.404  11.810   2.590  1.00  0.00     0.065 A 
HETATM    3  C   UNL     1       6.387  10.960   3.427  1.00  0.00     0.049 A 
ENDROOT
BRANCH   3   4
HETATM    4  C   UNL     1       5.947   9.804   4.213  1.00  0.00     0.255 C 
HETATM    5  O   UNL     1       6.242   9.733   5.363  1.00  0.00    -0.268 OA
HETATM    6  N   UNL     1       5.250   8.988   3.499  1.00  0.00    -0.321 N 
ATOM      7  HN  UNL     1       5.109   9.183   2.509  1.00  0.00     0.169 HD
BRANCH   6   8
HETATM    8  C   UNL     1       4.734   7.940   4.009  1.00  0.00     0.056 A 
HETATM    9  C   UNL     1       5.083   6.717   4.346  1.00  0.00     0.117 A 
HETATM   10  N   UNL     1       4.901   5.610   4.841  1.00  0.00    -0.373 N 
HETATM   11  C   UNL     1       3.635   5.820   5.147  1.00  0.00     0.088 A 
ATOM     12  HN  UNL     1       5.515   4.806   4.971  1.00  0.00     0.164 HD
HETATM   13  C   UNL     1       2.933   6.805   5.019  1.00  0.00     0.026 A 
HETATM   14  C   UNL     1       3.240   8.019   4.502  1.00  0.00    -0.033 A 
HETATM   15  C   UNL     1       2.433   9.188   4.369  1.00  0.00     0.050 C 
ENDBRANCH   6   8
ENDBRANCH   3   4
BRANCH   1  16
HETATM   16  C   UNL     1       8.622  12.665   3.560  1.00  0.00    -0.022 C 
BRANCH  16  17
HETATM   17  N   UNL     1       9.660  13.152   3.405  1.00  0.00    -0.249 N 
ATOM     18  HN  UNL     1      10.432  12.487   3.370  1.00  0.00     0.188 HD
BRANCH  17  19
HETATM   19  S   UNL     1      10.114  14.708   3.233  1.00  0.00     0.233 S 
HETATM   20  C   UNL     1       9.038  15.613   4.249  1.00  0.00     0.186 C 
HETATM   21  O   UNL     1      11.449  14.938   3.713  1.00  0.00    -0.205 OA
HETATM   22  O   UNL     1       9.929  15.139   1.900  1.00  0.00    -0.205 OA
ENDBRANCH  17  19
ENDBRANCH  16  17
ENDBRANCH   1  16
BRANCH   2  23
HETATM   23  C   UNL     1       6.409  11.241   1.041  1.00  0.00    -0.013 C 
HETATM   24  C   UNL     1       6.682  10.683   0.408  1.00  0.00     0.008 C 
ENDBRANCH   2  23
BRANCH   2  25
HETATM   25  C   UNL     1       5.296  12.754   2.395  1.00  0.00    -0.003 C 
BRANCH  25  26
HETATM   26  C   UNL     1       4.204  12.443   2.150  1.00  0.00    -0.013 C 
HETATM   27  C   UNL     1       3.174  12.306   2.356  1.00  0.00     0.011 C 
ENDBRANCH  25  26
ENDBRANCH   2  25
TORSDOF 8
ENDMDL
MODEL 7
REMARK VINA RESULT:    -6.051      4.339      8.007
REMARK INTER + INTRA:          -9.966
REMARK INTER:                  -8.960
REMARK INTRA:                  -1.006
REMARK UNBOUND:                -1.085
REMARK  8 active torsions:
REMARK  status: ('A' for Active; 'I' for Inactive)
REMARK    1  A    between atoms: S_2  and  N_5 
REMARK    2  A    between atoms: N_5  and  C_7 
REMARK    3  A    between atoms: C_7  and  C_8 
REMARK    4  A    between atoms: C_9  and  C_14 
REMARK    5  A    between atoms: C_9  and  C_10 
REMARK    6  A    between atoms: C_10  and  C_11 
REMARK    7  A    between atoms: C_15  and  C_16 
REMARK       I    between atoms: C_16  and  N_18 
REMARK    8  A    between atoms: N_18  and  C_20 
ROOT
HETATM    1  C   UNL     1       8.045  -0.626  21.221  1.00  0.00     0.040 A 
HETATM    2  C   UNL     1       9.042  -0.679  22.182  1.00  0.00     0.065 A 
HETATM    3  C   UNL     1       8.392  -1.668  22.337  1.00  0.00     0.049 A 
ENDROOT
BRANCH   3   4
HETATM    4  C   UNL     1       7.925  -2.939  22.895  1.00  0.00     0.255 C 
HETATM    5  O   UNL     1       8.636  -3.553  23.626  1.00  0.00    -0.268 OA
HETATM    6  N   UNL     1       6.732  -3.218  22.497  1.00  0.00    -0.321 N 
ATOM      7  HN  UNL     1       6.264  -2.593  21.841  1.00  0.00     0.169 HD
BRANCH   6   8
HETATM    8  C   UNL     1       6.125  -4.261  22.908  1.00  0.00     0.056 A 
HETATM    9  C   UNL     1       6.074  -5.551  22.656  1.00  0.00     0.117 A 
HETATM   10  N   UNL     1       5.709  -6.705  22.854  1.00  0.00    -0.373 N 
HETATM   11  C   UNL     1       4.900  -6.406  23.852  1.00  0.00     0.088 A 
ATOM     12  HN  UNL     1       5.947  -7.588  22.403  1.00  0.00     0.164 HD
HETATM   13  C   UNL     1       4.663  -5.347  24.401  1.00  0.00     0.026 A 
HETATM   14  C   UNL     1       5.162  -4.114  24.145  1.00  0.00    -0.033 A 
HETATM   15  C   UNL     1       4.910  -2.871  24.797  1.00  0.00     0.050 C 
ENDBRANCH   6   8
ENDBRANCH   3   4
BRANCH   1  16
HETATM   16  C   UNL     1       7.513  -0.032  20.222  1.00  0.00    -0.022 C 
BRANCH  16  17
HETATM   17  N   UNL     1       7.358   0.376  19.150  1.00  0.00    -0.249 N 
ATOM     18  HN  UNL     1       8.221   0.651  18.681  1.00  0.00     0.188 HD
BRANCH  17  19
HETATM   19  S   UNL     1       6.014   0.592  18.254  1.00  0.00     0.233 S 
HETATM   20  C   UNL     1       4.776   1.036  19.386  1.00  0.00     0.186 C 
HETATM   21  O   UNL     1       6.154   1.679  17.324  1.00  0.00    -0.205 OA
HETATM   22  O   UNL     1       5.629  -0.617  17.631  1.00  0.00    -0.205 OA
ENDBRANCH  17  19
ENDBRANCH  16  17
ENDBRANCH   1  16
BRANCH   2  23
HETATM   23  C   UNL     1       9.080   0.324  23.492  1.00  0.00    -0.013 C 
HETATM   24  C   UNL     1       8.730   0.945  24.018  1.00  0.00     0.008 C 
ENDBRANCH   2  23
BRANCH   2  25
HETATM   25  C   UNL     1      10.495  -0.708  21.976  1.00  0.00    -0.003 C 
BRANCH  25  26
HETATM   26  C   UNL     1      11.241  -1.298  22.644  1.00  0.00    -0.013 C 
HETATM   27  C   UNL     1      12.198  -1.607  22.975  1.00  0.00     0.011 C 
ENDBRANCH  25  26
ENDBRANCH   2  25
TORSDOF 8
ENDMDL
MODEL 8
REMARK VINA RESULT:    -6.049      2.096      2.430
REMARK INTER + INTRA:          -9.963
REMARK INTER:                  -8.791
REMARK INTRA:                  -1.171
REMARK UNBOUND:                -1.085
REMARK  8 active torsions:
REMARK  status: ('A' for Active; 'I' for Inactive)
REMARK    1  A    between atoms: S_2  and  N_5 
REMARK    2  A    between atoms: N_5  and  C_7 
REMARK    3  A    between atoms: C_7  and  C_8 
REMARK    4  A    between atoms: C_9  and  C_14 
REMARK    5  A    between atoms: C_9  and  C_10 
REMARK    6  A    between atoms: C_10  and  C_11 
REMARK    7  A    between atoms: C_15  and  C_16 
REMARK       I    between atoms: C_16  and  N_18 
REMARK    8  A    between atoms: N_18  and  C_20 
ROOT
HETATM    1  C   UNL     1       6.865  -4.726  25.628  1.00  0.00     0.040 A 
HETATM    2  C   UNL     1       5.979  -4.754  24.563  1.00  0.00     0.065 A 
HETATM    3  C   UNL     1       6.577  -3.726  24.458  1.00  0.00     0.049 A 
ENDROOT
BRANCH   3   4
HETATM    4  C   UNL     1       7.003  -2.424  23.940  1.00  0.00     0.255 C 
HETATM    5  O   UNL     1       6.740  -1.438  24.551  1.00  0.00    -0.268 OA
HETATM    6  N   UNL     1       7.652  -2.547  22.833  1.00  0.00    -0.321 N 
ATOM      7  HN  UNL     1       7.770  -3.473  22.422  1.00  0.00     0.169 HD
BRANCH   6   8
HETATM    8  C   UNL     1       8.150  -1.533  22.244  1.00  0.00     0.056 A 
HETATM    9  C   UNL     1       7.767  -0.538  21.473  1.00  0.00     0.117 A 
HETATM   10  N   UNL     1       7.928   0.506  20.850  1.00  0.00    -0.373 N 
HETATM   11  C   UNL     1       9.218   0.604  21.108  1.00  0.00     0.088 A 
ATOM     12  HN  UNL     1       7.286   1.095  20.318  1.00  0.00     0.164 HD
HETATM   13  C   UNL     1       9.954  -0.091  21.782  1.00  0.00     0.026 A 
HETATM   14  C   UNL     1       9.672  -1.212  22.487  1.00  0.00    -0.033 A 
HETATM   15  C   UNL     1      10.522  -2.020  23.299  1.00  0.00     0.050 C 
ENDBRANCH   6   8
ENDBRANCH   3   4
BRANCH   1  16
HETATM   16  C   UNL     1       7.367  -5.300  26.653  1.00  0.00    -0.022 C 
BRANCH  16  17
HETATM   17  N   UNL     1       7.475  -5.996  27.572  1.00  0.00    -0.249 N 
ATOM     18  HN  UNL     1       8.367  -6.486  27.621  1.00  0.00     0.188 HD
BRANCH  17  19
HETATM   19  S   UNL     1       6.460  -6.335  28.801  1.00  0.00     0.233 S 
HETATM   20  C   UNL     1       4.903  -6.546  28.064  1.00  0.00     0.186 C 
HETATM   21  O   UNL     1       6.795  -7.571  29.454  1.00  0.00    -0.205 OA
HETATM   22  O   UNL     1       6.379  -5.245  29.698  1.00  0.00    -0.205 OA
ENDBRANCH  17  19
ENDBRANCH  16  17
ENDBRANCH   1  16
BRANCH   2  23
HETATM   23  C   UNL     1       4.348  -4.579  24.746  1.00  0.00    -0.013 C 
HETATM   24  C   UNL     1       3.633  -4.195  25.102  1.00  0.00     0.008 C 
ENDBRANCH   2  23
BRANCH   2  25
HETATM   25  C   UNL     1       5.900  -5.741  23.479  1.00  0.00    -0.003 C 
BRANCH  25  26
HETATM   26  C   UNL     1       6.623  -5.776  22.569  1.00  0.00    -0.013 C 
HETATM   27  C   UNL     1       7.150  -6.242  21.778  1.00  0.00     0.011 C 
ENDBRANCH  25  26
ENDBRANCH   2  25
TORSDOF 8
ENDMDL
MODEL 9
REMARK VINA RESULT:    -5.938      3.399      7.490
REMARK INTER + INTRA:          -9.800
REMARK INTER:                  -8.833
REMARK INTRA:                  -0.967
REMARK UNBOUND:                -1.085
REMARK  8 active torsions:
REMARK  status: ('A' for Active; 'I' for Inactive)
REMARK    1  A    between atoms: S_2  and  N_5 
REMARK    2  A    between atoms: N_5  and  C_7 
REMARK    3  A    between atoms: C_7  and  C_8 
REMARK    4  A    between atoms: C_9  and  C_14 
REMARK    5  A    between atoms: C_9  and  C_10 
REMARK    6  A    between atoms: C_10  and  C_11 
REMARK    7  A    between atoms: C_15  and  C_16 
REMARK       I    between atoms: C_16  and  N_18 
REMARK    8  A    between atoms: N_18  and  C_20 
ROOT
HETATM    1  C   UNL     1       9.466  -0.219  23.112  1.00  0.00     0.040 A 
HETATM    2  C   UNL     1       9.915   0.393  24.271  1.00  0.00     0.065 A 
HETATM    3  C   UNL     1       9.284  -0.554  24.631  1.00  0.00     0.049 A 
ENDROOT
BRANCH   3   4
HETATM    4  C   UNL     1       8.636  -1.526  25.515  1.00  0.00     0.255 C 
HETATM    5  O   UNL     1       8.941  -1.565  26.664  1.00  0.00    -0.268 OA
HETATM    6  N   UNL     1       7.766  -2.233  24.879  1.00  0.00    -0.321 N 
ATOM      7  HN  UNL     1       7.642  -2.092  23.877  1.00  0.00     0.169 HD
BRANCH   6   8
HETATM    8  C   UNL     1       7.059  -3.106  25.481  1.00  0.00     0.056 A 
HETATM    9  C   UNL     1       6.108  -3.168  26.387  1.00  0.00     0.117 A 
HETATM   10  N   UNL     1       5.267  -3.740  27.073  1.00  0.00    -0.373 N 
HETATM   11  C   UNL     1       5.560  -4.951  26.640  1.00  0.00     0.088 A 
ATOM     12  HN  UNL     1       4.580  -3.398  27.745  1.00  0.00     0.164 HD
HETATM   13  C   UNL     1       6.358  -5.332  25.805  1.00  0.00     0.026 A 
HETATM   14  C   UNL     1       7.220  -4.612  25.048  1.00  0.00    -0.033 A 
HETATM   15  C   UNL     1       8.142  -5.045  24.050  1.00  0.00     0.050 C 
ENDBRANCH   6   8
ENDBRANCH   3   4
BRANCH   1  16
HETATM   16  C   UNL     1       9.436  -0.266  21.836  1.00  0.00    -0.022 C 
BRANCH  16  17
HETATM   17  N   UNL     1       9.033  -0.234  20.751  1.00  0.00    -0.249 N 
ATOM     18  HN  UNL     1       9.728  -0.466  20.042  1.00  0.00     0.188 HD
BRANCH  17  19
HETATM   19  S   UNL     1       7.559   0.114  20.150  1.00  0.00     0.233 S 
HETATM   20  C   UNL     1       7.037   1.528  21.009  1.00  0.00     0.186 C 
HETATM   21  O   UNL     1       7.610   0.454  18.755  1.00  0.00    -0.205 OA
HETATM   22  O   UNL     1       6.647  -0.931  20.427  1.00  0.00    -0.205 OA
ENDBRANCH  17  19
ENDBRANCH  16  17
ENDBRANCH   1  16
BRANCH   2  23
HETATM   23  C   UNL     1       9.335   1.843  24.805  1.00  0.00    -0.013 C 
HETATM   24  C   UNL     1       8.789   2.539  24.754  1.00  0.00     0.008 C 
ENDBRANCH   2  23
BRANCH   2  25
HETATM   25  C   UNL     1      11.303   0.627  24.689  1.00  0.00    -0.003 C 
BRANCH  25  26
HETATM   26  C   UNL     1      12.232   0.147  24.182  1.00  0.00    -0.013 C 
HETATM   27  C   UNL     1      13.099  -0.459  24.141  1.00  0.00     0.011 C 
ENDBRANCH  25  26
ENDBRANCH   2  25
TORSDOF 8
ENDMDL
