REMARK  8 active torsions:
REMARK  status: ('A' for Active; 'I' for Inactive)
REMARK    1  A    between atoms: S_2  and  N_5 
REMARK    2  A    between atoms: N_5  and  C_7 
REMARK    3  A    between atoms: C_7  and  C_8 
REMARK    4  A    between atoms: C_9  and  C_14 
REMARK    5  A    between atoms: C_9  and  C_10 
REMARK    6  A    between atoms: C_10  and  C_11 
REMARK    7  A    between atoms: C_15  and  C_16 
REMARK       I    between atoms: C_16  and  N_18 
REMARK    8  A    between atoms: N_18  and  C_20 
ROOT
HETATM    1  C   UNL     1       9.458  -1.910  23.482  1.00  0.00     0.040 A 
HETATM    2  C   UNL     1      10.533  -1.066  23.255  1.00  0.00     0.065 A 
HETATM    3  C   UNL     1       9.685  -0.721  22.489  1.00  0.00     0.049 A 
ENDROOT
BRANCH   3   4
HETATM    4  C   UNL     1       9.006   0.020  21.423  1.00  0.00     0.255 C 
HETATM    5  O   UNL     1       9.531   0.977  20.951  1.00  0.00    -0.268 OA
HETATM    6  N   UNL     1       7.872  -0.516  21.126  1.00  0.00    -0.321 N 
ATOM      7  HN  UNL     1       7.550  -1.329  21.650  1.00  0.00     0.169 HD
BRANCH   6   8
HETATM    8  C   UNL     1       7.146  -0.048  20.189  1.00  0.00     0.056 A 
HETATM    9  C   UNL     1       7.154   0.059  18.878  1.00  0.00     0.117 A 
HETATM   10  N   UNL     1       6.675   0.351  17.787  1.00  0.00    -0.373 N 
HETATM   11  C   UNL     1       5.564   0.867  18.277  1.00  0.00     0.088 A 
ATOM     12  HN  UNL     1       7.017   0.235  16.833  1.00  0.00     0.164 HD
HETATM   13  C   UNL     1       5.159   0.957  19.420  1.00  0.00     0.026 A 
HETATM   14  C   UNL     1       5.742   0.552  20.574  1.00  0.00    -0.033 A 
HETATM   15  C   UNL     1       5.266   0.631  21.916  1.00  0.00     0.050 C 
ENDBRANCH   6   8
ENDBRANCH   3   4
BRANCH   1  16
HETATM   16  C   UNL     1       8.934  -2.865  24.150  1.00  0.00    -0.022 C 
BRANCH  16  17
HETATM   17  N   UNL     1       8.140  -3.518  24.682  1.00  0.00    -0.249 N 
ATOM     18  HN  UNL     1       7.261  -3.603  24.172  1.00  0.00     0.188 HD
BRANCH  17  19
HETATM   19  S   UNL     1       8.170  -4.326  26.097  1.00  0.00     0.233 S 
HETATM   20  C   UNL     1       6.550  -4.901  26.330  1.00  0.00     0.186 C 
HETATM   21  O   UNL     1       9.029  -5.477  26.044  1.00  0.00    -0.205 OA
HETATM   22  O   UNL     1       8.486  -3.454  27.164  1.00  0.00    -0.205 OA
ENDBRANCH  17  19
ENDBRANCH  16  17
ENDBRANCH   1  16
BRANCH   2  23
HETATM   23  C   UNL     1      11.934  -1.567  22.541  1.00  0.00    -0.013 C 
HETATM   24  C   UNL     1      12.794  -1.477  22.346  1.00  0.00     0.008 C 
ENDBRANCH   2  23
BRANCH   2  25
HETATM   25  C   UNL     1      11.172  -0.142  24.200  1.00  0.00    -0.003 C 
BRANCH  25  26
HETATM   26  C   UNL     1      12.293   0.163  24.164  1.00  0.00    -0.013 C 
HETATM   27  C   UNL     1      13.290   0.120  23.810  1.00  0.00     0.011 C 
ENDBRANCH  25  26
ENDBRANCH   2  25
TORSDOF 8
