stable:False satoms:7 tatoms:24 sratio:0.2916666666666667
  -OEChem-08062412373D

 40 41  0     1  0  0  0  0  0999 V2000
    5.9847   -4.8028   25.7787 C   0  0  0  0  0  0  0  0  0  0  0  0
    7.4248   -4.3376   25.6885 S   0  0  0  0  0  0  0  0  0  0  0  0
    8.3118   -5.4796   25.6111 O   0  0  0  0  0  0  0  0  0  0  0  0
    7.8169   -3.5230   26.8144 O   0  0  0  0  0  0  0  0  0  0  0  0
    7.5336   -3.4521   24.3336 N   0  0  0  0  0  0  0  0  0  0  0  0
    8.4775   -2.7999   23.9329 C   0  0  0  0  0  0  0  0  0  0  0  0
    9.0385   -1.8779   23.4388 C   0  0  0  0  0  0  0  0  0  0  0  0
    9.9716   -1.0546   23.2762 C   0  0  1  0  0  0  0  0  0  0  0  0
   10.5701    0.0032   24.5390 C   0  0  0  0  0  0  0  0  0  0  0  0
   11.5610    0.2533   24.6312 C   0  0  0  0  0  0  0  0  0  0  0  0
   12.6953   -0.1913   23.8908 C   0  0  0  0  0  0  0  0  0  0  0  0
   12.4101   -1.1618   23.0202 C   0  0  0  0  0  0  0  0  0  0  0  0
   11.4758   -1.6302   22.7143 C   0  0  0  0  0  0  0  0  0  0  0  0
    9.4527   -0.4202   22.3824 C   0  0  0  0  0  0  0  0  0  0  0  0
    8.9367    0.2722   21.3892 C   0  0  0  0  0  0  0  0  0  0  0  0
    9.5224    1.2026   21.0723 O   0  0  0  0  0  0  0  0  0  0  0  0
    7.8042   -0.2767   20.9579 N   0  0  0  0  0  0  0  0  0  0  0  0
    7.1713    0.2643   20.0112 C   0  0  0  0  0  0  0  0  0  0  0  0
    7.3322    0.4036   18.7266 C   0  0  0  0  0  0  0  0  0  0  0  0
    7.1048    0.7640   17.5863 N   0  0  0  0  0  0  0  0  0  0  0  0
    5.8998    1.3463   17.9914 C   0  0  0  0  0  0  0  0  0  0  0  0
    5.4251    1.4164   19.0514 C   0  0  0  0  0  0  0  0  0  0  0  0
    5.8031    0.9653   20.2692 C   0  0  0  0  0  0  0  0  0  0  0  0
    5.1069    1.0831   21.6742 Cl  0  0  0  0  0  0  0  0  0  0  0  0
    5.8517   -5.4120   26.6848 H   0  0  0  0  0  0  0  0  0  0  0  0
    5.3192   -3.9282   25.8241 H   0  0  0  0  0  0  0  0  0  0  0  0
    5.7380   -5.4056   24.8922 H   0  0  0  0  0  0  0  0  0  0  0  0
    6.7841   -2.7938   24.4025 H   0  0  0  0  0  0  0  0  0  0  0  0
    9.8660    0.4091   25.2503 H   0  0  0  0  0  0  0  0  0  0  0  0
   11.7792    0.9661   25.4127 H   0  0  0  0  0  0  0  0  0  0  0  0
   13.6867    0.2166   24.0215 H   0  0  0  0  0  0  0  0  0  0  0  0
   13.2790   -1.5624   22.5193 H   0  0  0  0  0  0  0  0  0  0  0  0
   11.4420   -1.5700   21.6165 H   0  0  0  0  0  0  0  0  0  0  0  0
   11.5406   -2.6844   23.0219 H   0  0  0  0  0  0  0  0  0  0  0  0
    9.0418    0.2943   23.1108 H   0  0  0  0  0  0  0  0  0  0  0  0
    8.7268   -1.2290   22.2125 H   0  0  0  0  0  0  0  0  0  0  0  0
    7.4570   -1.1131   21.3819 H   0  0  0  0  0  0  0  0  0  0  0  0
    8.2461   -0.1529   18.5799 H   0  0  0  0  0  0  0  0  0  0  0  0
    5.3218    1.8000   17.1999 H   0  0  0  0  0  0  0  0  0  0  0  0
    4.4881    1.9532   19.0659 H   0  0  0  0  0  0  0  0  0  0  0  0
 20 21  2  0  0  0  0
 19 20  1  0  0  0  0
 21 22  1  0  0  0  0
 18 19  2  0  0  0  0
 22 23  2  0  0  0  0
 18 23  1  0  0  0  0
 17 18  1  0  0  0  0
 23 24  1  0  0  0  0
 15 16  2  0  0  0  0
 15 17  1  0  0  0  0
 14 15  1  0  0  0  0
  8 14  1  0  0  0  0
 12 13  1  0  0  0  0
  8 13  1  0  0  0  0
 11 12  2  0  0  0  0
  7  8  1  0  0  0  0
  8  9  1  0  0  0  0
 10 11  1  0  0  0  0
  6  7  3  0  0  0  0
  5  6  1  0  0  0  0
  9 10  2  0  0  0  0
  2  5  1  0  0  0  0
  2  3  2  0  0  0  0
  1  2  1  0  0  0  0
  2  4  2  0  0  0  0
  1 25  1  0  0  0  0
  1 26  1  0  0  0  0
  1 27  1  0  0  0  0
  5 28  1  0  0  0  0
  9 29  1  0  0  0  0
 10 30  1  0  0  0  0
 11 31  1  0  0  0  0
 12 32  1  0  0  0  0
 13 33  1  0  0  0  0
 13 34  1  0  0  0  0
 14 35  1  0  0  0  0
 14 36  1  0  0  0  0
 17 37  1  0  0  0  0
 19 38  1  0  0  0  0
 21 39  1  0  0  0  0
 22 40  1  0  0  0  0
M  END
> <Chemgauss4>
-12.296833

$$$$
