stable:False satoms:7 tatoms:24 sratio:0.2916666666666667
  -OEChem-08062412373D

 40 41  0     1  0  0  0  0  0999 V2000
   -5.9457   -5.1226  -25.8403 C   0  0  0  0  0  0  0  0  0  0  0  0
   -7.3858   -4.6574  -25.7501 S   0  0  0  0  0  0  0  0  0  0  0  0
   -8.2728   -5.7994  -25.6727 O   0  0  0  0  0  0  0  0  0  0  0  0
   -7.7779   -3.8428  -26.8761 O   0  0  0  0  0  0  0  0  0  0  0  0
   -7.4946   -3.7719  -24.3952 N   0  0  0  0  0  0  0  0  0  0  0  0
   -8.4385   -3.1197  -23.9945 C   0  0  0  0  0  0  0  0  0  0  0  0
   -8.9994   -2.1977  -23.5005 C   0  0  0  0  0  0  0  0  0  0  0  0
   -9.9326   -1.3744  -23.3379 C   0  0  1  0  0  0  0  0  0  0  0  0
  -10.5311   -0.3166  -24.6006 C   0  0  0  0  0  0  0  0  0  0  0  0
  -11.5220   -0.0665  -24.6928 C   0  0  0  0  0  0  0  0  0  0  0  0
  -12.6562   -0.5111  -23.9525 C   0  0  0  0  0  0  0  0  0  0  0  0
  -12.3711   -1.4816  -23.0819 C   0  0  0  0  0  0  0  0  0  0  0  0
  -11.4368   -1.9500  -22.7760 C   0  0  0  0  0  0  0  0  0  0  0  0
   -9.4137   -0.7400  -22.4440 C   0  0  0  0  0  0  0  0  0  0  0  0
   -8.8977   -0.0476  -21.4508 C   0  0  0  0  0  0  0  0  0  0  0  0
   -9.4834    0.8828  -21.1339 O   0  0  0  0  0  0  0  0  0  0  0  0
   -7.7651   -0.5965  -21.0195 N   0  0  0  0  0  0  0  0  0  0  0  0
   -7.1323   -0.0555  -20.0728 C   0  0  0  0  0  0  0  0  0  0  0  0
   -7.2932    0.0838  -18.7882 C   0  0  0  0  0  0  0  0  0  0  0  0
   -7.0658    0.4442  -17.6480 N   0  0  0  0  0  0  0  0  0  0  0  0
   -5.8608    1.0265  -18.0530 C   0  0  0  0  0  0  0  0  0  0  0  0
   -5.3861    1.0966  -19.1130 C   0  0  0  0  0  0  0  0  0  0  0  0
   -5.7641    0.6455  -20.3308 C   0  0  0  0  0  0  0  0  0  0  0  0
   -5.0679    0.7633  -21.7358 Cl  0  0  0  0  0  0  0  0  0  0  0  0
   -5.8127   -5.7318  -26.7464 H   0  0  0  0  0  0  0  0  0  0  0  0
   -5.2801   -4.2480  -25.8857 H   0  0  0  0  0  0  0  0  0  0  0  0
   -5.6990   -5.7254  -24.9538 H   0  0  0  0  0  0  0  0  0  0  0  0
   -6.7451   -3.1136  -24.4641 H   0  0  0  0  0  0  0  0  0  0  0  0
   -9.8270    0.0893  -25.3119 H   0  0  0  0  0  0  0  0  0  0  0  0
  -11.7401    0.6463  -25.4743 H   0  0  0  0  0  0  0  0  0  0  0  0
  -13.6477   -0.1032  -24.0831 H   0  0  0  0  0  0  0  0  0  0  0  0
  -13.2400   -1.8822  -22.5809 H   0  0  0  0  0  0  0  0  0  0  0  0
  -11.4030   -1.8898  -21.6781 H   0  0  0  0  0  0  0  0  0  0  0  0
  -11.5015   -3.0042  -23.0835 H   0  0  0  0  0  0  0  0  0  0  0  0
   -9.0027   -0.0255  -23.1724 H   0  0  0  0  0  0  0  0  0  0  0  0
   -8.6878   -1.5488  -22.2741 H   0  0  0  0  0  0  0  0  0  0  0  0
   -7.4180   -1.4329  -21.4436 H   0  0  0  0  0  0  0  0  0  0  0  0
   -8.2071   -0.4727  -18.6415 H   0  0  0  0  0  0  0  0  0  0  0  0
   -5.2827    1.4802  -17.2616 H   0  0  0  0  0  0  0  0  0  0  0  0
   -4.4491    1.6334  -19.1276 H   0  0  0  0  0  0  0  0  0  0  0  0
 20 21  2  0  0  0  0
 19 20  1  0  0  0  0
 21 22  1  0  0  0  0
 18 19  2  0  0  0  0
 22 23  2  0  0  0  0
 18 23  1  0  0  0  0
 17 18  1  0  0  0  0
 23 24  1  0  0  0  0
 15 16  2  0  0  0  0
 15 17  1  0  0  0  0
 14 15  1  0  0  0  0
  8 14  1  0  0  0  0
 12 13  1  0  0  0  0
  8 13  1  0  0  0  0
 11 12  2  0  0  0  0
  7  8  1  0  0  0  0
  8  9  1  0  0  0  0
 10 11  1  0  0  0  0
  6  7  3  0  0  0  0
  5  6  1  0  0  0  0
  9 10  2  0  0  0  0
  2  5  1  0  0  0  0
  2  3  2  0  0  0  0
  1  2  1  0  0  0  0
  2  4  2  0  0  0  0
  1 25  1  0  0  0  0
  1 26  1  0  0  0  0
  1 27  1  0  0  0  0
  5 28  1  0  0  0  0
  9 29  1  0  0  0  0
 10 30  1  0  0  0  0
 11 31  1  0  0  0  0
 12 32  1  0  0  0  0
 13 33  1  0  0  0  0
 13 34  1  0  0  0  0
 14 35  1  0  0  0  0
 14 36  1  0  0  0  0
 17 37  1  0  0  0  0
 19 38  1  0  0  0  0
 21 39  1  0  0  0  0
 22 40  1  0  0  0  0
M  END
> <Chemgauss4>
-12.950144

$$$$
