stable:False satoms:17 tatoms:24 sratio:0.7083333333333334
  -OEChem-07092417393D

 24 24  0     1  0  0  0  0  0999 V2000
    6.9165   -4.8412   26.5832 F   0  0  0  0  0  0  0  0  0  0  0  0
    8.1357   -4.5146   26.2184 C   0  0  2  0  0  0  0  0  0  0  0  0
    8.7427   -5.4451   26.2078 H   0  0  0  0  0  0  0  0  0  0  0  0
    8.6219   -3.6395   27.0230 O   0  0  0  0  0  0  0  0  0  0  0  0
    7.9522   -3.8966   24.5071 S   0  0  0  0  0  0  0  0  0  0  0  0
    8.9309   -2.7855   24.0536 C   0  0  0  0  0  0  0  0  0  0  0  0
    9.4910   -1.8679   23.3450 C   0  0  0  0  0  0  0  0  0  0  0  0
   10.5161   -0.9209   23.2295 C   0  0  1  0  0  0  0  0  0  0  0  0
   10.3911    0.0047   23.8127 H   0  0  0  0  0  0  0  0  0  0  0  0
   12.3817    0.2453   24.1064 H   0  0  0  0  0  0  0  0  0  0  0  0
   13.6064   -0.5708   23.0724 H   0  0  0  0  0  0  0  0  0  0  0  0
   12.5900   -0.5750   23.4010 C   0  3  0  0  0  0  0  0  0  0  0  0
   11.7955   -1.4778   23.0719 O   0  0  0  0  0  0  0  0  0  0  0  0
    9.6632   -1.2891   22.1954 O   0  0  0  0  0  0  0  0  0  0  0  0
    8.5979    0.2615   20.8240 C   0  0  0  0  0  0  0  0  0  0  0  0
    9.6803    0.7386   20.9967 O   0  0  0  0  0  0  0  0  0  0  0  0
    7.6374   -0.1537   21.6128 N   0  0  0  0  0  0  0  0  0  0  0  0
    6.7428    0.3325   19.6839 C   0  0  0  0  0  0  0  0  0  0  0  0
    8.0345    0.1122   19.4756 O   0  0  0  0  0  0  0  0  0  0  0  0
    6.2667    0.5919   17.6306 H   0  0  0  0  0  0  0  0  0  0  0  0
    5.9069    0.7209   18.6389 C   0  5  0  0  0  0  0  0  0  0  0  0
    4.9531    1.1177   18.9271 H   0  0  0  0  0  0  0  0  0  0  0  0
    6.4558    0.2128   21.0431 C   0  0  0  0  0  0  0  0  0  0  0  0
    5.5740    0.3493   21.6368 H   0  0  0  0  0  0  0  0  0  0  0  0
 20 21  1  0  0  0  0
 21 22  1  0  0  0  0
 18 21  1  0  0  0  0
 18 19  1  0  0  0  0
 15 19  1  0  0  0  0
 18 23  2  0  0  0  0
 15 16  2  0  0  0  0
 15 17  1  0  0  0  0
 17 23  1  0  0  0  0
 23 24  1  0  0  0  0
  8 14  1  0  0  0  0
  7 14  1  0  0  0  0
  8 13  1  0  0  0  0
 12 13  1  0  0  0  0
 11 12  1  0  0  0  0
  7  8  1  0  0  0  0
  8  9  1  0  0  0  0
  6  7  2  0  0  0  0
 10 12  1  0  0  0  0
  5  6  1  0  0  0  0
  2  5  1  0  0  0  0
  2  3  1  0  0  0  0
  1  2  1  0  0  0  0
  2  4  1  0  0  0  0
M  CHG  2  12   1  21  -1
M  END
> <Shapegauss>
-194.316788

$$$$
