stable:False satoms:17 tatoms:24 sratio:0.7083333333333334
  -OEChem-07092417353D

 24 24  0     1  0  0  0  0  0999 V2000
    7.9963   -3.5166   26.3964 H   0  0  0  0  0  0  0  0  0  0  0  0
    7.4299   -1.7392   24.8061 O   0  0  0  0  0  0  0  0  0  0  0  0
    9.0958   -4.7763   25.7627 H   0  0  0  0  0  0  0  0  0  0  0  0
    8.5082   -3.8937   25.5047 C   0  0  0  0  0  0  0  0  0  0  0  0
    7.7162   -4.1435   24.7933 H   0  0  0  0  0  0  0  0  0  0  0  0
    9.3358   -2.9712   24.7876 O   0  0  0  0  0  0  0  0  0  0  0  0
    8.6112   -1.7022   24.1666 C   0  0  2  0  0  0  0  0  0  0  0  0
   11.1293   -1.8666   21.7324 H   0  0  0  0  0  0  0  0  0  0  0  0
   10.0024   -0.3811   24.7419 S   0  0  0  0  0  0  0  0  0  0  0  0
   12.0873   -0.0780   23.8143 H   0  0  0  0  0  0  0  0  0  0  0  0
   11.3475   -0.8410   23.5798 C   0  0  0  0  0  0  0  0  0  0  0  0
   10.8874   -0.8924   22.1251 C   0  0  0  0  0  0  0  0  0  0  0  0
   11.6711   -1.8412   23.8755 H   0  0  0  0  0  0  0  0  0  0  0  0
    9.3525   -0.8088   21.9792 C   0  0  0  0  0  0  0  0  0  0  0  0
    8.9321   -0.0669   20.8691 N   0  0  0  0  0  0  0  0  0  0  0  0
   11.2727   -0.0914   21.4947 H   0  0  0  0  0  0  0  0  0  0  0  0
    8.5314   -1.3922   22.6179 N   0  0  0  0  0  0  0  0  0  0  0  0
    7.8978    0.0756   20.3442 C   0  0  0  0  0  0  0  0  0  0  0  0
    7.9240    0.3453   18.1492 H   0  0  0  0  0  0  0  0  0  0  0  0
    6.9391    0.4281   18.2732 N   0  5  0  0  0  0  0  0  0  0  0  0
    6.7713    0.4366   19.5947 C   0  0  3  0  0  0  0  0  0  0  0  0
    5.6597    0.7368   20.3789 C   0  5  0  0  0  0  0  0  0  0  0  0
    5.8213    0.8830   21.4364 H   0  0  0  0  0  0  0  0  0  0  0  0
    4.6637    0.8068   20.0725 H   0  0  0  0  0  0  0  0  0  0  0  0
 19 20  1  0  0  0  0
 20 21  1  0  0  0  0
 18 21  1  0  0  0  0
 21 22  1  0  0  0  0
 22 24  1  0  0  0  0
 15 18  1  0  0  0  0
 22 23  1  0  0  0  0
 14 15  1  0  0  0  0
 12 16  1  0  0  0  0
  8 12  1  0  0  0  0
 12 14  1  0  0  0  0
 14 17  2  0  0  0  0
 11 12  1  0  0  0  0
  7 17  1  0  0  0  0
 10 11  1  0  0  0  0
 11 13  1  0  0  0  0
  9 11  1  0  0  0  0
  7  9  1  0  0  0  0
  6  7  1  0  0  0  0
  2  7  1  0  0  0  0
  4  6  1  0  0  0  0
  4  5  1  0  0  0  0
  3  4  1  0  0  0  0
  1  4  1  0  0  0  0
M  CHG  2  20  -1  22  -1
M  END
> <Shapegauss>
-157.262390

$$$$
