stable:False satoms:17 tatoms:24 sratio:0.7083333333333334
  -OEChem-08062402083D

 33 33  0     1  0  0  0  0  0999 V2000
  -12.2667   -1.6977  -23.3462 H   0  0  0  0  0  0  0  0  0  0  0  0
  -10.2767   -1.8698  -21.9252 O   0  0  0  0  0  0  0  0  0  0  0  0
  -12.2020   -0.4103  -24.5856 H   0  0  0  0  0  0  0  0  0  0  0  0
  -11.6948   -0.8423  -23.7213 C   0  0  0  0  0  0  0  0  0  0  0  0
  -11.6535   -0.1291  -22.8934 H   0  0  0  0  0  0  0  0  0  0  0  0
  -10.3194   -1.0691  -24.0484 O   0  0  0  0  0  0  0  0  0  0  0  0
   -9.3728   -1.5259  -22.8582 C   0  0  2  0  0  0  0  0  0  0  0  0
   -6.8578    0.1168  -24.6664 H   0  0  0  0  0  0  0  0  0  0  0  0
   -8.4323   -2.9587  -23.8947 S   0  0  0  0  0  0  0  0  0  0  0  0
   -6.8283   -2.6623  -25.5190 H   0  0  0  0  0  0  0  0  0  0  0  0
   -7.4152   -1.9052  -25.0024 C   0  0  0  0  0  0  0  0  0  0  0  0
   -6.6142   -0.8465  -24.2487 C   0  0  0  0  0  0  0  0  0  0  0  0
   -8.1197   -1.3986  -25.6655 H   0  0  0  0  0  0  0  0  0  0  0  0
   -7.0328   -0.7207  -22.7678 C   0  0  0  0  0  0  0  0  0  0  0  0
   -5.9625   -0.4768  -21.8991 N   0  0  0  0  0  0  0  0  0  0  0  0
   -5.5387   -1.0193  -24.2221 H   0  0  0  0  0  0  0  0  0  0  0  0
   -8.1412   -0.6871  -22.3287 N   0  3  0  0  0  0  0  0  0  0  0  0
   -5.8966   -0.1627  -20.7754 C   0  0  0  0  0  0  0  0  0  0  0  0
   -4.4474    1.2098  -18.3213 H   0  0  0  0  0  0  0  0  0  0  0  0
   -4.6051    1.0522  -19.2961 N   0  3  0  0  0  0  0  0  0  0  0  0
   -5.5744    0.1513  -19.4493 C   0  0  3  0  0  0  0  0  0  0  0  0
   -6.3429   -0.5407  -18.5159 C   0  0  0  0  0  0  0  0  0  0  0  0
   -5.6840   -1.1411  -17.8714 H   0  0  0  0  0  0  0  0  0  0  0  0
   -7.0472   -1.2040  -19.0395 H   0  0  0  0  0  0  0  0  0  0  0  0
  -10.9768   -2.3680  -22.3303 H   0  0  0  0  0  0  0  0  0  0  0  0
   -5.0680   -0.5961  -22.3298 H   0  0  0  0  0  0  0  0  0  0  0  0
   -6.7045   -0.8472  -20.4773 H   0  0  0  0  0  0  0  0  0  0  0  0
   -6.3152    0.8356  -20.9705 H   0  0  0  0  0  0  0  0  0  0  0  0
   -4.8754    1.9102  -19.7330 H   0  0  0  0  0  0  0  0  0  0  0  0
   -4.8282   -0.6568  -19.4371 H   0  0  0  0  0  0  0  0  0  0  0  0
   -6.9044    0.1766  -17.8993 H   0  0  0  0  0  0  0  0  0  0  0  0
   -8.3065   -0.0736  -21.5565 H   0  0  0  0  0  0  0  0  0  0  0  0
   -3.7649    0.7130  -19.7191 H   0  0  0  0  0  0  0  0  0  0  0  0
 19 20  1  0  0  0  0
 20 21  1  0  0  0  0
 18 21  1  0  0  0  0
 21 22  1  0  0  0  0
 22 24  1  0  0  0  0
 15 18  1  0  0  0  0
 22 23  1  0  0  0  0
 14 15  1  0  0  0  0
 12 16  1  0  0  0  0
  8 12  1  0  0  0  0
 12 14  1  0  0  0  0
 14 17  2  0  0  0  0
 11 12  1  0  0  0  0
  7 17  1  0  0  0  0
 10 11  1  0  0  0  0
 11 13  1  0  0  0  0
  9 11  1  0  0  0  0
  7  9  1  0  0  0  0
  6  7  1  0  0  0  0
  2  7  1  0  0  0  0
  4  6  1  0  0  0  0
  4  5  1  0  0  0  0
  3  4  1  0  0  0  0
  1  4  1  0  0  0  0
  2 25  1  0  0  0  0
 15 26  1  0  0  0  0
 18 27  1  0  0  0  0
 18 28  1  0  0  0  0
 20 29  1  0  0  0  0
 21 30  1  0  0  0  0
 22 31  1  0  0  0  0
 17 32  1  0  0  0  0
 20 33  1  0  0  0  0
M  CHG  2  17   1  20   1
M  END
> <Chemgauss4>
-5.572938

$$$$
