stable:False satoms:17 tatoms:24 sratio:0.7083333333333334
  -OEChem-07092417383D

 24 24  0     0  0  0  0  0  0999 V2000
    6.8224   -4.7603   26.2761 F   0  0  0  0  0  0  0  0  0  0  0  0
    8.1023   -4.4430   26.1316 C   0  0  0  0  0  0  0  0  0  0  0  0
    8.7521   -5.3555   26.2910 H   0  0  0  0  0  0  0  0  0  0  0  0
    8.3238   -3.5976   27.1600 F   0  0  0  0  0  0  0  0  0  0  0  0
    8.3111   -3.8281   24.9074 N   0  0  0  0  0  0  0  0  0  0  0  0
    9.0653   -3.0605   24.3658 C   0  0  0  0  0  0  0  0  0  0  0  0
    9.3190   -2.2344   23.6341 N   0  0  0  0  0  0  0  0  0  0  0  0
   10.2563   -1.3732   23.1647 C   0  0  0  0  0  0  0  0  0  0  0  0
   11.6249    0.3316   24.0702 H   0  0  0  0  0  0  0  0  0  0  0  0
   12.2752   -0.4219   23.5775 C   0  0  0  0  0  0  0  0  0  0  0  0
   13.2159   -0.5310   24.1278 H   0  0  0  0  0  0  0  0  0  0  0  0
   12.5767   -0.2069   22.5409 H   0  0  0  0  0  0  0  0  0  0  0  0
   11.5444   -1.6471   23.4348 O   0  0  0  0  0  0  0  0  0  0  0  0
    9.8585   -0.4400   22.4443 N   0  0  0  0  0  0  0  0  0  0  0  0
    9.1122    0.1250   21.4259 C   0  0  0  0  0  0  0  0  0  0  0  0
    9.6084    1.0498   20.8507 O   0  0  0  0  0  0  0  0  0  0  0  0
    7.8547   -0.3557   21.1503 N   0  0  0  0  0  0  0  0  0  0  0  0
    7.0822    0.0192   20.0994 C   0  0  0  0  0  0  0  0  0  0  0  0
    7.3509   -0.2410   18.8093 N   0  0  0  0  0  0  0  0  0  0  0  0
    6.6054    0.2231   17.8474 N   0  0  0  0  0  0  0  0  0  0  0  0
    5.5546    0.8953   18.0716 N   0  0  0  0  0  0  0  0  0  0  0  0
    5.1463    1.0959   19.2855 N   0  0  0  0  0  0  0  0  0  0  0  0
    5.8152    0.6566   20.3096 C   0  0  0  0  0  0  0  0  0  0  0  0
    5.4064    0.8094   21.3209 H   0  0  0  0  0  0  0  0  0  0  0  0
 20 21  2  0  0  0  0
 19 20  1  0  0  0  0
 21 22  1  0  0  0  0
 18 19  2  0  0  0  0
 22 23  2  0  0  0  0
 18 23  1  0  0  0  0
 17 18  1  0  0  0  0
 23 24  1  0  0  0  0
 15 16  2  0  0  0  0
 15 17  1  0  0  0  0
 14 15  1  0  0  0  0
  8 14  2  3  0  0  0
 10 12  1  0  0  0  0
  8 13  1  0  0  0  0
  7  8  1  0  0  0  0
 10 13  1  0  0  0  0
  9 10  1  0  0  0  0
 10 11  1  0  0  0  0
  6  7  2  0  0  0  0
  5  6  1  0  0  0  0
  2  5  1  0  0  0  0
  1  2  1  0  0  0  0
  2  3  1  0  0  0  0
  2  4  1  0  0  0  0
M  END
> <Shapegauss>
-215.769211

$$$$
