REMARK  3 active torsions:
REMARK  status: ('A' for Active; 'I' for Inactive)
REMARK    1  A    between atoms: C_4  and  C_14 
REMARK    2  A    between atoms: N_5  and  C_14 
REMARK    3  A    between atoms: C_10  and  C_15 
ROOT
HETATM    1  C   UNL     1      10.508  -1.381  23.563  1.00  0.00     0.010 C 
HETATM    2  C   UNL     1       9.428  -1.726  22.797  1.00  0.00    -0.026 C 
HETATM    3  C   UNL     1      11.051  -0.077  23.782  1.00  0.00     0.003 C 
HETATM    4  C   UNL     1      10.596   1.084  23.439  1.00  0.00     0.040 C 
HETATM    5  C   UNL     1       9.463   1.065  22.765  1.00  0.00     0.111 A 
HETATM    6  C   UNL     1       8.576   0.569  22.204  1.00  0.00     0.120 A 
HETATM    7  C   UNL     1       8.473  -0.890  22.141  1.00  0.00     0.004 C 
HETATM    8  O   UNL     1       8.212   1.733  22.005  1.00  0.00    -0.304 OA
ENDROOT
BRANCH   2   9
HETATM    9  C   UNL     1       9.374  -3.132  22.273  1.00  0.00     0.178 C 
BRANCH   9  10
HETATM   10  N   UNL     1       8.597  -4.142  22.920  1.00  0.00    -0.339 N 
HETATM   11  N   UNL     1       7.596  -3.876  23.651  1.00  0.00    -0.349 N 
HETATM   12  H   UNL     1       7.207  -4.543  24.279  1.00  0.00     0.176 HD
HETATM   13  H   UNL     1       7.133  -2.978  23.538  1.00  0.00     0.176 HD
ATOM     14  HN  UNL     1       8.859  -5.119  22.788  1.00  0.00     0.179 HD
ENDBRANCH   9  10
ENDBRANCH   2   9
BRANCH   7  15
HETATM   15  C   UNL     1       7.369  -1.068  21.517  1.00  0.00    -0.016 C 
HETATM   16  C   UNL     1       6.507   0.018  21.034  1.00  0.00     0.037 C 
ENDBRANCH   7  15
TORSDOF 3
