stable:False satoms:20 tatoms:24 sratio:0.8333333333333334
  -OEChem-07092417333D

 24 25  0     0  0  0  0  0  0999 V2000
    7.2073   -4.5430   24.2789 H   0  0  0  0  0  0  0  0  0  0  0  0
    7.1333   -2.9781   23.5380 H   0  0  0  0  0  0  0  0  0  0  0  0
   10.5084   -1.3806   23.5630 C   0  0  0  0  0  0  0  0  0  0  0  0
    9.4278   -1.7261   22.7966 C   0  0  0  0  0  0  0  0  0  0  0  0
    8.5970   -4.1422   22.9200 N   0  0  0  0  0  0  0  0  0  0  0  0
    6.5074    0.0184   21.0338 C   0  0  0  0  0  0  0  0  0  0  0  0
    7.5961   -3.8759   23.6513 N   0  3  0  0  0  0  0  0  0  0  0  0
   11.1367   -2.1697   23.9460 H   0  0  0  0  0  0  0  0  0  0  0  0
   11.0511   -0.0768   23.7819 C   0  0  0  0  0  0  0  0  0  0  0  0
    7.3686   -1.0681   21.5167 C   0  0  0  0  0  0  0  0  0  0  0  0
   10.5957    1.0840   23.4389 C   0  0  0  0  0  0  0  0  0  0  0  0
   12.0057   -0.0693   24.2591 H   0  0  0  0  0  0  0  0  0  0  0  0
   10.9905    2.0093   23.6575 H   0  0  0  0  0  0  0  0  0  0  0  0
    9.4635    1.0651   22.7647 C   0  0  0  0  0  0  0  0  0  0  0  0
    8.5762    0.5693   22.2043 C   0  0  0  0  0  0  0  0  0  0  0  0
    9.1466   -3.0655   21.2143 H   0  0  0  0  0  0  0  0  0  0  0  0
   10.3852   -3.5209   22.3680 H   0  0  0  0  0  0  0  0  0  0  0  0
    9.3739   -3.1321   22.2734 C   0  0  0  0  0  0  0  0  0  0  0  0
    7.0882    0.6574   20.3765 H   0  0  0  0  0  0  0  0  0  0  0  0
    8.4726   -0.8903   22.1411 C   0  0  0  0  0  0  0  0  0  0  0  0
    8.2119    1.7331   22.0045 O   0  0  0  0  0  0  0  0  0  0  0  0
    6.9735   -2.0335   21.2434 H   0  0  0  0  0  0  0  0  0  0  0  0
    5.6536   -0.3434   20.4623 H   0  0  0  0  0  0  0  0  0  0  0  0
    6.1130    0.5889   21.8625 H   0  0  0  0  0  0  0  0  0  0  0  0
  6 19  1  0  0  0  0
  6 23  1  0  0  0  0
  6 10  1  0  0  0  0
  6 24  1  0  0  0  0
 16 18  1  0  0  0  0
 10 22  1  0  0  0  0
 10 20  2  0  0  0  0
 15 21  1  0  0  0  0
 14 21  1  0  0  0  0
 15 20  1  0  0  0  0
  4 20  1  0  0  0  0
 14 15  2  0  0  0  0
 17 18  1  0  0  0  0
  4 18  1  0  0  0  0
  5 18  1  0  0  0  0
 11 14  1  0  0  0  0
  3  4  2  0  0  0  0
  5  7  2  0  0  0  0
 11 13  1  0  0  0  0
  9 11  2  0  0  0  0
  2  7  1  0  0  0  0
  3  9  1  0  0  0  0
  3  8  1  0  0  0  0
  1  7  1  0  0  0  0
  9 12  1  0  0  0  0
M  CHG  1   7   1
M  END
> <Shapegauss>
-120.583939

$$$$
