MODEL 1
REMARK VINA RESULT:    -4.949      0.000      0.000
REMARK INTER + INTRA:          -6.098
REMARK INTER:                  -5.817
REMARK INTRA:                  -0.281
REMARK UNBOUND:                -0.281
REMARK  3 active torsions:
REMARK  status: ('A' for Active; 'I' for Inactive)
REMARK    1  A    between atoms: C_4  and  C_14 
REMARK    2  A    between atoms: N_5  and  C_14 
REMARK    3  A    between atoms: C_10  and  C_15 
ROOT
HETATM    1  C   UNL     1       3.080   4.653   6.390  1.00  0.00     0.010 C 
HETATM    2  C   UNL     1       2.970   5.019   5.076  1.00  0.00    -0.026 C 
HETATM    3  C   UNL     1       2.063   4.126   7.245  1.00  0.00     0.003 C 
HETATM    4  C   UNL     1       0.859   3.743   6.970  1.00  0.00     0.040 C 
HETATM    5  C   UNL     1       0.503   3.875   5.707  1.00  0.00     0.111 A 
HETATM    6  C   UNL     1       0.632   4.210   4.603  1.00  0.00     0.120 A 
HETATM    7  C   UNL     1       1.880   4.841   4.170  1.00  0.00     0.004 C 
HETATM    8  O   UNL     1      -0.502   3.742   4.459  1.00  0.00    -0.304 OA
ENDROOT
BRANCH   2   9
HETATM    9  C   UNL     1       3.955   6.026   4.555  1.00  0.00     0.178 C 
BRANCH   9  10
HETATM   10  N   UNL     1       5.277   5.647   4.166  1.00  0.00    -0.339 N 
HETATM   11  N   UNL     1       6.286   5.807   4.916  1.00  0.00    -0.349 N 
HETATM   12  H   UNL     1       7.217   5.766   4.566  1.00  0.00     0.176 HD
HETATM   13  H   UNL     1       6.141   5.909   5.917  1.00  0.00     0.176 HD
ATOM     14  HN  UNL     1       5.414   5.229   3.246  1.00  0.00     0.179 HD
ENDBRANCH   9  10
ENDBRANCH   2   9
BRANCH   7  15
HETATM   15  C   UNL     1       1.689   5.011   2.915  1.00  0.00    -0.016 C 
HETATM   16  C   UNL     1       1.878   3.966   1.901  1.00  0.00     0.037 C 
ENDBRANCH   7  15
TORSDOF 3
ENDMDL
MODEL 2
REMARK VINA RESULT:    -4.863     30.173     31.604
REMARK INTER + INTRA:          -5.997
REMARK INTER:                  -5.733
REMARK INTRA:                  -0.264
REMARK UNBOUND:                -0.281
REMARK  3 active torsions:
REMARK  status: ('A' for Active; 'I' for Inactive)
REMARK    1  A    between atoms: C_4  and  C_14 
REMARK    2  A    between atoms: N_5  and  C_14 
REMARK    3  A    between atoms: C_10  and  C_15 
ROOT
HETATM    1  C   UNL     1      24.654  -4.104  27.729  1.00  0.00     0.010 C 
HETATM    2  C   UNL     1      24.146  -2.848  27.542  1.00  0.00    -0.026 C 
HETATM    3  C   UNL     1      24.418  -5.275  26.943  1.00  0.00     0.003 C 
HETATM    4  C   UNL     1      23.799  -5.411  25.816  1.00  0.00     0.040 C 
HETATM    5  C   UNL     1      23.288  -4.302  25.319  1.00  0.00     0.111 A 
HETATM    6  C   UNL     1      22.999  -3.178  25.324  1.00  0.00     0.120 A 
HETATM    7  C   UNL     1      23.381  -2.328  26.453  1.00  0.00     0.004 C 
HETATM    8  O   UNL     1      22.506  -3.427  24.219  1.00  0.00    -0.304 OA
ENDROOT
BRANCH   2   9
HETATM    9  C   UNL     1      24.070  -1.948  28.742  1.00  0.00     0.178 C 
BRANCH   9  10
HETATM   10  N   UNL     1      22.884  -1.857  29.534  1.00  0.00    -0.339 N 
HETATM   11  N   UNL     1      22.815  -2.298  30.721  1.00  0.00    -0.349 N 
HETATM   12  H   UNL     1      21.945  -2.448  31.180  1.00  0.00     0.176 HD
HETATM   13  H   UNL     1      23.677  -2.432  31.243  1.00  0.00     0.176 HD
ATOM     14  HN  UNL     1      22.057  -1.419  29.127  1.00  0.00     0.179 HD
ENDBRANCH   9  10
ENDBRANCH   2   9
BRANCH   7  15
HETATM   15  C   UNL     1      22.961  -1.173  26.092  1.00  0.00    -0.016 C 
HETATM   16  C   UNL     1      21.562  -0.736  26.180  1.00  0.00     0.037 C 
ENDBRANCH   7  15
TORSDOF 3
ENDMDL
MODEL 3
REMARK VINA RESULT:    -4.853      9.953     11.638
REMARK INTER + INTRA:          -5.985
REMARK INTER:                  -5.674
REMARK INTRA:                  -0.311
REMARK UNBOUND:                -0.281
REMARK  3 active torsions:
REMARK  status: ('A' for Active; 'I' for Inactive)
REMARK    1  A    between atoms: C_4  and  C_14 
REMARK    2  A    between atoms: N_5  and  C_14 
REMARK    3  A    between atoms: C_10  and  C_15 
ROOT
HETATM    1  C   UNL     1       7.757  13.807   0.933  1.00  0.00     0.010 C 
HETATM    2  C   UNL     1       8.059  14.695   1.930  1.00  0.00    -0.026 C 
HETATM    3  C   UNL     1       6.711  12.834   0.908  1.00  0.00     0.003 C 
HETATM    4  C   UNL     1       5.730  12.643   1.730  1.00  0.00     0.040 C 
HETATM    5  C   UNL     1       5.699  13.460   2.764  1.00  0.00     0.111 A 
HETATM    6  C   UNL     1       6.099  14.298   3.461  1.00  0.00     0.120 A 
HETATM    7  C   UNL     1       7.342  14.996   3.128  1.00  0.00     0.004 C 
HETATM    8  O   UNL     1       5.081  14.063   4.122  1.00  0.00    -0.304 OA
ENDROOT
BRANCH   2   9
HETATM    9  C   UNL     1       9.468  15.209   1.993  1.00  0.00     0.178 C 
BRANCH   9  10
HETATM   10  N   UNL     1      10.506  14.470   2.640  1.00  0.00    -0.339 N 
HETATM   11  N   UNL     1      11.197  14.944   3.591  1.00  0.00    -0.349 N 
HETATM   12  H   UNL     1      12.057  14.532   3.877  1.00  0.00     0.176 HD
HETATM   13  H   UNL     1      10.825  15.726   4.123  1.00  0.00     0.176 HD
ATOM     14  HN  UNL     1      10.700  13.520   2.322  1.00  0.00     0.179 HD
ENDBRANCH   9  10
ENDBRANCH   2   9
BRANCH   7  15
HETATM   15  C   UNL     1       7.433  15.869   4.061  1.00  0.00    -0.016 C 
HETATM   16  C   UNL     1       6.875  17.224   3.983  1.00  0.00     0.037 C 
ENDBRANCH   7  15
TORSDOF 3
ENDMDL
MODEL 4
REMARK VINA RESULT:    -4.838     15.599     17.482
REMARK INTER + INTRA:          -5.968
REMARK INTER:                  -5.683
REMARK INTRA:                  -0.284
REMARK UNBOUND:                -0.281
REMARK  3 active torsions:
REMARK  status: ('A' for Active; 'I' for Inactive)
REMARK    1  A    between atoms: C_4  and  C_14 
REMARK    2  A    between atoms: N_5  and  C_14 
REMARK    3  A    between atoms: C_10  and  C_15 
ROOT
HETATM    1  C   UNL     1      10.728  21.504   1.917  1.00  0.00     0.010 C 
HETATM    2  C   UNL     1      10.509  20.273   2.471  1.00  0.00    -0.026 C 
HETATM    3  C   UNL     1      10.397  21.948   0.599  1.00  0.00     0.003 C 
HETATM    4  C   UNL     1       9.705  21.368  -0.327  1.00  0.00     0.040 C 
HETATM    5  C   UNL     1       9.248  20.170  -0.017  1.00  0.00     0.111 A 
HETATM    6  C   UNL     1       9.132  19.222   0.642  1.00  0.00     0.120 A 
HETATM    7  C   UNL     1       9.772  19.162   1.958  1.00  0.00     0.004 C 
HETATM    8  O   UNL     1       8.430  18.812  -0.288  1.00  0.00    -0.304 OA
ENDROOT
BRANCH   2   9
HETATM    9  C   UNL     1      11.397  19.860   3.609  1.00  0.00     0.178 C 
BRANCH   9  10
HETATM   10  N   UNL     1      12.649  19.209   3.383  1.00  0.00    -0.339 N 
HETATM   11  N   UNL     1      13.094  18.294   4.139  1.00  0.00    -0.349 N 
HETATM   12  H   UNL     1      14.049  18.012   4.123  1.00  0.00     0.176 HD
HETATM   13  H   UNL     1      12.440  17.784   4.726  1.00  0.00     0.176 HD
ATOM     14  HN  UNL     1      13.209  19.494   2.579  1.00  0.00     0.179 HD
ENDBRANCH   9  10
ENDBRANCH   2   9
BRANCH   7  15
HETATM   15  C   UNL     1       9.384  18.028   2.408  1.00  0.00    -0.016 C 
HETATM   16  C   UNL     1       8.142  17.818   3.163  1.00  0.00     0.037 C 
ENDBRANCH   7  15
TORSDOF 3
ENDMDL
MODEL 5
REMARK VINA RESULT:    -4.770     27.137     27.853
REMARK INTER + INTRA:          -5.888
REMARK INTER:                  -5.540
REMARK INTRA:                  -0.347
REMARK UNBOUND:                -0.281
REMARK  3 active torsions:
REMARK  status: ('A' for Active; 'I' for Inactive)
REMARK    1  A    between atoms: C_4  and  C_14 
REMARK    2  A    between atoms: N_5  and  C_14 
REMARK    3  A    between atoms: C_10  and  C_15 
ROOT
HETATM    1  C   UNL     1      22.236 -13.950   5.147  1.00  0.00     0.010 C 
HETATM    2  C   UNL     1      22.458 -14.521   6.371  1.00  0.00    -0.026 C 
HETATM    3  C   UNL     1      21.255 -14.312   4.172  1.00  0.00     0.003 C 
HETATM    4  C   UNL     1      20.271 -15.147   4.250  1.00  0.00     0.040 C 
HETATM    5  C   UNL     1      20.164 -15.781   5.401  1.00  0.00     0.111 A 
HETATM    6  C   UNL     1      20.494 -16.095   6.468  1.00  0.00     0.120 A 
HETATM    7  C   UNL     1      21.696 -15.510   7.065  1.00  0.00     0.004 C 
HETATM    8  O   UNL     1      19.479 -16.799   6.441  1.00  0.00    -0.304 OA
ENDROOT
BRANCH   2   9
HETATM    9  C   UNL     1      23.829 -14.372   6.964  1.00  0.00     0.178 C 
BRANCH   9  10
HETATM   10  N   UNL     1      24.175 -13.247   7.775  1.00  0.00    -0.339 N 
HETATM   11  N   UNL     1      24.227 -13.302   9.040  1.00  0.00    -0.349 N 
HETATM   12  H   UNL     1      24.234 -12.482   9.606  1.00  0.00     0.176 HD
HETATM   13  H   UNL     1      24.338 -14.208   9.486  1.00  0.00     0.176 HD
ATOM     14  HN  UNL     1      24.389 -12.362   7.315  1.00  0.00     0.179 HD
ENDBRANCH   9  10
ENDBRANCH   2   9
BRANCH   7  15
HETATM   15  C   UNL     1      21.710 -16.028   8.236  1.00  0.00    -0.016 C 
HETATM   16  C   UNL     1      21.268 -15.335   9.453  1.00  0.00     0.037 C 
ENDBRANCH   7  15
TORSDOF 3
ENDMDL
MODEL 6
REMARK VINA RESULT:    -4.686     18.822     20.542
REMARK INTER + INTRA:          -5.789
REMARK INTER:                  -5.567
REMARK INTRA:                  -0.222
REMARK UNBOUND:                -0.281
REMARK  3 active torsions:
REMARK  status: ('A' for Active; 'I' for Inactive)
REMARK    1  A    between atoms: C_4  and  C_14 
REMARK    2  A    between atoms: N_5  and  C_14 
REMARK    3  A    between atoms: C_10  and  C_15 
ROOT
HETATM    1  C   UNL     1       9.393   2.076  22.431  1.00  0.00     0.010 C 
HETATM    2  C   UNL     1      10.417   1.811  23.298  1.00  0.00    -0.026 C 
HETATM    3  C   UNL     1       8.711   1.162  21.569  1.00  0.00     0.003 C 
HETATM    4  C   UNL     1       8.788  -0.126  21.492  1.00  0.00     0.040 C 
HETATM    5  C   UNL     1       9.643  -0.687  22.324  1.00  0.00     0.111 A 
HETATM    6  C   UNL     1      10.481  -0.701  23.127  1.00  0.00     0.120 A 
HETATM    7  C   UNL     1      10.977   0.557  23.690  1.00  0.00     0.004 C 
HETATM    8  O   UNL     1      10.405  -1.928  23.008  1.00  0.00    -0.304 OA
ENDROOT
BRANCH   2   9
HETATM    9  C   UNL     1      11.321   2.952  23.668  1.00  0.00     0.178 C 
BRANCH   9  10
HETATM   10  N   UNL     1      11.078   4.281  23.202  1.00  0.00    -0.339 N 
HETATM   11  N   UNL     1      11.978   4.998  22.670  1.00  0.00    -0.349 N 
HETATM   12  H   UNL     1      11.876   5.982  22.564  1.00  0.00     0.176 HD
HETATM   13  H   UNL     1      12.797   4.542  22.275  1.00  0.00     0.176 HD
ATOM     14  HN  UNL     1      10.140   4.669  23.300  1.00  0.00     0.179 HD
ENDBRANCH   9  10
ENDBRANCH   2   9
BRANCH   7  15
HETATM   15  C   UNL     1      11.825   0.160  24.563  1.00  0.00    -0.016 C 
HETATM   16  C   UNL     1      13.156  -0.370  24.243  1.00  0.00     0.037 C 
ENDBRANCH   7  15
TORSDOF 3
ENDMDL
MODEL 7
REMARK VINA RESULT:    -4.670     15.448     17.136
REMARK INTER + INTRA:          -5.770
REMARK INTER:                  -5.505
REMARK INTRA:                  -0.265
REMARK UNBOUND:                -0.281
REMARK  3 active torsions:
REMARK  status: ('A' for Active; 'I' for Inactive)
REMARK    1  A    between atoms: C_4  and  C_14 
REMARK    2  A    between atoms: N_5  and  C_14 
REMARK    3  A    between atoms: C_10  and  C_15 
ROOT
HETATM    1  C   UNL     1       7.555   0.092  19.363  1.00  0.00     0.010 C 
HETATM    2  C   UNL     1       7.629   0.739  20.567  1.00  0.00    -0.026 C 
HETATM    3  C   UNL     1       6.433  -0.003  18.482  1.00  0.00     0.003 C 
HETATM    4  C   UNL     1       5.286   0.592  18.527  1.00  0.00     0.040 C 
HETATM    5  C   UNL     1       5.112   1.399  19.555  1.00  0.00     0.111 A 
HETATM    6  C   UNL     1       5.393   1.899  20.564  1.00  0.00     0.120 A 
HETATM    7  C   UNL     1       6.682   1.605  21.194  1.00  0.00     0.004 C 
HETATM    8  O   UNL     1       4.298   2.459  20.450  1.00  0.00    -0.304 OA
ENDROOT
BRANCH   2   9
HETATM    9  C   UNL     1       8.665   0.263  21.544  1.00  0.00     0.178 C 
BRANCH   9  10
HETATM   10  N   UNL     1       9.593  -0.770  21.206  1.00  0.00    -0.339 N 
HETATM   11  N   UNL     1       9.594  -1.905  21.769  1.00  0.00    -0.349 N 
HETATM   12  H   UNL     1      10.369  -2.527  21.707  1.00  0.00     0.176 HD
HETATM   13  H   UNL     1       8.747  -2.219  22.237  1.00  0.00     0.176 HD
ATOM     14  HN  UNL     1      10.286  -0.585  20.480  1.00  0.00     0.179 HD
ENDBRANCH   9  10
ENDBRANCH   2   9
BRANCH   7  15
HETATM   15  C   UNL     1       6.670   2.362  22.227  1.00  0.00    -0.016 C 
HETATM   16  C   UNL     1       7.235   3.717  22.266  1.00  0.00     0.037 C 
ENDBRANCH   7  15
TORSDOF 3
ENDMDL
MODEL 8
REMARK VINA RESULT:    -4.638     18.617     20.378
REMARK INTER + INTRA:          -5.732
REMARK INTER:                  -5.498
REMARK INTRA:                  -0.234
REMARK UNBOUND:                -0.281
REMARK  3 active torsions:
REMARK  status: ('A' for Active; 'I' for Inactive)
REMARK    1  A    between atoms: C_4  and  C_14 
REMARK    2  A    between atoms: N_5  and  C_14 
REMARK    3  A    between atoms: C_10  and  C_15 
ROOT
HETATM    1  C   UNL     1       9.862  -0.629  24.728  1.00  0.00     0.010 C 
HETATM    2  C   UNL     1       9.067  -0.727  23.618  1.00  0.00    -0.026 C 
HETATM    3  C   UNL     1      11.046   0.153  24.896  1.00  0.00     0.003 C 
HETATM    4  C   UNL     1      11.574   1.044  24.121  1.00  0.00     0.040 C 
HETATM    5  C   UNL     1      10.933   1.252  22.988  1.00  0.00     0.111 A 
HETATM    6  C   UNL     1      10.123   1.052  22.181  1.00  0.00     0.120 A 
HETATM    7  C   UNL     1       9.108   0.020  22.401  1.00  0.00     0.004 C 
HETATM    8  O   UNL     1      10.680   1.971  21.571  1.00  0.00    -0.304 OA
ENDROOT
BRANCH   2   9
HETATM    9  C   UNL     1       8.241  -1.971  23.468  1.00  0.00     0.178 C 
BRANCH   9  10
HETATM   10  N   UNL     1       8.708  -3.093  22.715  1.00  0.00    -0.339 N 
HETATM   11  N   UNL     1       7.966  -4.075  22.413  1.00  0.00    -0.349 N 
HETATM   12  H   UNL     1       8.338  -4.944  22.102  1.00  0.00     0.176 HD
HETATM   13  H   UNL     1       6.957  -3.945  22.418  1.00  0.00     0.176 HD
ATOM     14  HN  UNL     1       9.680  -3.103  22.407  1.00  0.00     0.179 HD
ENDBRANCH   9  10
ENDBRANCH   2   9
BRANCH   7  15
HETATM   15  C   UNL     1       8.370   0.124  21.360  1.00  0.00    -0.016 C 
HETATM   16  C   UNL     1       7.270   1.086  21.218  1.00  0.00     0.037 C 
ENDBRANCH   7  15
TORSDOF 3
ENDMDL
MODEL 9
REMARK VINA RESULT:    -4.588     20.789     22.228
REMARK INTER + INTRA:          -5.674
REMARK INTER:                  -5.407
REMARK INTRA:                  -0.267
REMARK UNBOUND:                -0.281
REMARK  3 active torsions:
REMARK  status: ('A' for Active; 'I' for Inactive)
REMARK    1  A    between atoms: C_4  and  C_14 
REMARK    2  A    between atoms: N_5  and  C_14 
REMARK    3  A    between atoms: C_10  and  C_15 
ROOT
HETATM    1  C   UNL     1       7.893  -5.388  24.012  1.00  0.00     0.010 C 
HETATM    2  C   UNL     1       8.282  -4.272  24.701  1.00  0.00    -0.026 C 
HETATM    3  C   UNL     1       7.199  -5.455  22.764  1.00  0.00     0.003 C 
HETATM    4  C   UNL     1       6.895  -4.517  21.928  1.00  0.00     0.040 C 
HETATM    5  C   UNL     1       7.265  -3.303  22.288  1.00  0.00     0.111 A 
HETATM    6  C   UNL     1       7.701  -2.502  23.005  1.00  0.00     0.120 A 
HETATM    7  C   UNL     1       8.242  -2.899  24.307  1.00  0.00     0.004 C 
HETATM    8  O   UNL     1       7.423  -1.714  22.095  1.00  0.00    -0.304 OA
ENDROOT
BRANCH   2   9
HETATM    9  C   UNL     1       8.480  -4.409  26.183  1.00  0.00     0.178 C 
BRANCH   9  10
HETATM   10  N   UNL     1       8.552  -5.689  26.813  1.00  0.00    -0.339 N 
HETATM   11  N   UNL     1       7.677  -6.102  27.632  1.00  0.00    -0.349 N 
HETATM   12  H   UNL     1       7.842  -6.874  28.239  1.00  0.00     0.176 HD
HETATM   13  H   UNL     1       6.754  -5.677  27.617  1.00  0.00     0.176 HD
ATOM     14  HN  UNL     1       9.340  -6.298  26.593  1.00  0.00     0.179 HD
ENDBRANCH   9  10
ENDBRANCH   2   9
BRANCH   7  15
HETATM   15  C   UNL     1       8.678  -1.792  24.780  1.00  0.00    -0.016 C 
HETATM   16  C   UNL     1      10.011  -1.242  24.503  1.00  0.00     0.037 C 
ENDBRANCH   7  15
TORSDOF 3
ENDMDL
