stable:False satoms:10 tatoms:24 sratio:0.4166666666666667
  -OEChem-08062417553D

 47 47  0     1  0  0  0  0  0999 V2000
    6.5536   -5.2223   26.3006 C   0  0  0  0  0  0  0  0  0  0  0  0
    8.1160   -4.6047   26.1076 S   0  0  0  0  0  0  0  0  0  0  0  0
    9.0259   -5.7318   26.0734 O   0  0  0  0  0  0  0  0  0  0  0  0
    8.4170   -3.7586   27.2314 O   0  0  0  0  0  0  0  0  0  0  0  0
    8.0933   -3.7846   24.6797 N   0  0  0  0  0  0  0  0  0  0  0  0
    8.9842   -3.1118   24.2442 C   0  0  0  0  0  0  0  0  0  0  0  0
    9.4463   -2.0852   23.6854 C   0  0  0  0  0  0  0  0  0  0  0  0
   10.2921   -1.2343   23.5464 C   0  0  2  0  0  0  0  0  0  0  0  0
   10.9303   -0.1042   24.6793 C   0  0  0  0  0  0  0  0  0  0  0  0
   11.9121    0.2039   24.7145 C   0  0  0  0  0  0  0  0  0  0  0  0
   13.0864   -0.2019   23.9281 C   0  0  0  0  0  0  0  0  0  0  0  0
   12.7508   -1.2527   23.0543 C   0  0  0  0  0  0  0  0  0  0  0  0
   11.8784   -1.7678   22.8552 C   0  0  0  0  0  0  0  0  0  0  0  0
    9.7509   -0.6142   22.6062 C   0  0  0  0  0  0  0  0  0  0  0  0
    9.1138    0.0072   21.6545 C   0  0  0  0  0  0  0  0  0  0  0  0
    9.5786    0.9714   21.3260 O   0  0  0  0  0  0  0  0  0  0  0  0
    8.0424   -0.6028   21.2093 N   0  0  0  0  0  0  0  0  0  0  0  0
    7.3348   -0.1471   20.2849 C   0  0  0  0  0  0  0  0  0  0  0  0
    7.4684    0.0083   18.9640 C   0  0  0  0  0  0  0  0  0  0  0  0
    7.0343    0.3973   17.9155 N   0  0  0  0  0  0  0  0  0  0  0  0
    5.8933    0.9080   18.3256 C   0  0  0  0  0  0  0  0  0  0  0  0
    5.4271    0.9193   19.4754 C   0  0  0  0  0  0  0  0  0  0  0  0
    5.9416    0.4645   20.6187 C   0  0  0  0  0  0  0  0  0  0  0  0
    5.3528    0.5139   22.0775 C   0  0  0  0  0  0  0  0  0  0  0  0
    6.4958   -5.7870   27.2428 H   0  0  0  0  0  0  0  0  0  0  0  0
    5.8319   -4.3925   26.3257 H   0  0  0  0  0  0  0  0  0  0  0  0
    6.3164   -5.8891   25.4585 H   0  0  0  0  0  0  0  0  0  0  0  0
    7.3060   -3.1711   24.7411 H   0  0  0  0  0  0  0  0  0  0  0  0
    9.8635   -3.7094   24.4340 H   0  0  0  0  0  0  0  0  0  0  0  0
    8.7002   -1.8334   22.9463 H   0  0  0  0  0  0  0  0  0  0  0  0
   11.1987   -1.7138   23.1486 H   0  0  0  0  0  0  0  0  0  0  0  0
   10.2496    0.3122   25.4071 H   0  0  0  0  0  0  0  0  0  0  0  0
   12.1153    0.9581   25.4604 H   0  0  0  0  0  0  0  0  0  0  0  0
   13.8815   -0.5374   24.6102 H   0  0  0  0  0  0  0  0  0  0  0  0
   13.4447    0.6570   23.3416 H   0  0  0  0  0  0  0  0  0  0  0  0
   13.5877   -1.5946   22.4636 H   0  0  0  0  0  0  0  0  0  0  0  0
   11.8738   -2.5574   22.1185 H   0  0  0  0  0  0  0  0  0  0  0  0
   10.9706   -1.5170   23.3838 H   0  0  0  0  0  0  0  0  0  0  0  0
   10.3646   -1.1542   21.8701 H   0  0  0  0  0  0  0  0  0  0  0  0
   10.2617    0.3151   22.8983 H   0  0  0  0  0  0  0  0  0  0  0  0
    7.7793   -1.4720   21.6280 H   0  0  0  0  0  0  0  0  0  0  0  0
    8.4291   -0.4243   18.7266 H   0  0  0  0  0  0  0  0  0  0  0  0
    5.2858    1.3766   17.5655 H   0  0  0  0  0  0  0  0  0  0  0  0
    4.4492    1.3689   19.5646 H   0  0  0  0  0  0  0  0  0  0  0  0
    4.7644   -0.3960   22.2669 H   0  0  0  0  0  0  0  0  0  0  0  0
    6.1769    0.5753   22.8035 H   0  0  0  0  0  0  0  0  0  0  0  0
    4.7057    1.3973   22.1818 H   0  0  0  0  0  0  0  0  0  0  0  0
 20 21  2  0  0  0  0
 19 20  1  0  0  0  0
 21 22  1  0  0  0  0
 18 19  2  0  0  0  0
 22 23  2  0  0  0  0
 18 23  1  0  0  0  0
 17 18  1  0  0  0  0
 23 24  1  0  0  0  0
 15 16  2  0  0  0  0
 15 17  1  0  0  0  0
 14 15  1  0  0  0  0
  8 14  1  0  0  0  0
 12 13  2  0  0  0  0
 11 12  1  0  0  0  0
  7  8  1  0  0  0  0
  8  9  1  0  0  0  0
 10 11  1  0  0  0  0
  6  7  2  3  0  0  0
  5  6  1  0  0  0  0
  9 10  2  0  0  0  0
  2  5  1  0  0  0  0
  2  3  2  0  0  0  0
  1  2  1  0  0  0  0
  2  4  2  0  0  0  0
  1 25  1  0  0  0  0
  1 26  1  0  0  0  0
  1 27  1  0  0  0  0
  5 28  1  0  0  0  0
  6 29  1  0  0  0  0
  7 30  1  0  0  0  0
  8 31  1  0  0  0  0
  9 32  1  0  0  0  0
 10 33  1  0  0  0  0
 11 34  1  0  0  0  0
 11 35  1  0  0  0  0
 12 36  1  0  0  0  0
 13 37  1  0  0  0  0
 13 38  1  0  0  0  0
 14 39  1  0  0  0  0
 14 40  1  0  0  0  0
 17 41  1  0  0  0  0
 19 42  1  0  0  0  0
 21 43  1  0  0  0  0
 22 44  1  0  0  0  0
 24 45  1  0  0  0  0
 24 46  1  0  0  0  0
 24 47  1  0  0  0  0
M  END
> <Chemgauss4>
-13.115273

$$$$
