stable:False satoms:10 tatoms:24 sratio:0.4166666666666667
  -OEChem-08062417553D

 47 47  0     1  0  0  0  0  0999 V2000
   -6.4438   -5.1664  -26.2251 C   0  0  0  0  0  0  0  0  0  0  0  0
   -8.0062   -4.5487  -26.0321 S   0  0  0  0  0  0  0  0  0  0  0  0
   -8.9161   -5.6759  -25.9979 O   0  0  0  0  0  0  0  0  0  0  0  0
   -8.3072   -3.7026  -27.1559 O   0  0  0  0  0  0  0  0  0  0  0  0
   -7.9835   -3.7286  -24.6042 N   0  0  0  0  0  0  0  0  0  0  0  0
   -8.8743   -3.0558  -24.1687 C   0  0  0  0  0  0  0  0  0  0  0  0
   -9.3365   -2.0293  -23.6100 C   0  0  0  0  0  0  0  0  0  0  0  0
  -10.1823   -1.1783  -23.4709 C   0  0  2  0  0  0  0  0  0  0  0  0
  -10.8204   -0.0482  -24.6038 C   0  0  0  0  0  0  0  0  0  0  0  0
  -11.8023    0.2599  -24.6390 C   0  0  0  0  0  0  0  0  0  0  0  0
  -12.9766   -0.1460  -23.8526 C   0  0  0  0  0  0  0  0  0  0  0  0
  -12.6410   -1.1967  -22.9788 C   0  0  0  0  0  0  0  0  0  0  0  0
  -11.7686   -1.7118  -22.7797 C   0  0  0  0  0  0  0  0  0  0  0  0
   -9.6410   -0.5582  -22.5307 C   0  0  0  0  0  0  0  0  0  0  0  0
   -9.0040    0.0631  -21.5790 C   0  0  0  0  0  0  0  0  0  0  0  0
   -9.4688    1.0274  -21.2505 O   0  0  0  0  0  0  0  0  0  0  0  0
   -7.9326   -0.5469  -21.1338 N   0  0  0  0  0  0  0  0  0  0  0  0
   -7.2249   -0.0911  -20.2094 C   0  0  0  0  0  0  0  0  0  0  0  0
   -7.3586    0.0643  -18.8885 C   0  0  0  0  0  0  0  0  0  0  0  0
   -6.9244    0.4533  -17.8400 N   0  0  0  0  0  0  0  0  0  0  0  0
   -5.7835    0.9640  -18.2501 C   0  0  0  0  0  0  0  0  0  0  0  0
   -5.3173    0.9753  -19.3999 C   0  0  0  0  0  0  0  0  0  0  0  0
   -5.8318    0.5205  -20.5432 C   0  0  0  0  0  0  0  0  0  0  0  0
   -5.2430    0.5699  -22.0020 C   0  0  0  0  0  0  0  0  0  0  0  0
   -6.3860   -5.7310  -27.1673 H   0  0  0  0  0  0  0  0  0  0  0  0
   -5.7221   -4.3366  -26.2502 H   0  0  0  0  0  0  0  0  0  0  0  0
   -6.2066   -5.8332  -25.3830 H   0  0  0  0  0  0  0  0  0  0  0  0
   -7.1961   -3.1152  -24.6656 H   0  0  0  0  0  0  0  0  0  0  0  0
   -9.7537   -3.6534  -24.3585 H   0  0  0  0  0  0  0  0  0  0  0  0
   -8.5903   -1.7774  -22.8708 H   0  0  0  0  0  0  0  0  0  0  0  0
  -11.0889   -1.6579  -23.0731 H   0  0  0  0  0  0  0  0  0  0  0  0
  -10.1398    0.3682  -25.3316 H   0  0  0  0  0  0  0  0  0  0  0  0
  -12.0054    1.0140  -25.3849 H   0  0  0  0  0  0  0  0  0  0  0  0
  -13.7716   -0.4814  -24.5347 H   0  0  0  0  0  0  0  0  0  0  0  0
  -13.3349    0.7130  -23.2661 H   0  0  0  0  0  0  0  0  0  0  0  0
  -13.4779   -1.5387  -22.3881 H   0  0  0  0  0  0  0  0  0  0  0  0
  -11.7639   -2.5015  -22.0430 H   0  0  0  0  0  0  0  0  0  0  0  0
  -10.8608   -1.4610  -23.3083 H   0  0  0  0  0  0  0  0  0  0  0  0
  -10.2548   -1.0982  -21.7946 H   0  0  0  0  0  0  0  0  0  0  0  0
  -10.1519    0.3711  -22.8228 H   0  0  0  0  0  0  0  0  0  0  0  0
   -7.6694   -1.4160  -21.5525 H   0  0  0  0  0  0  0  0  0  0  0  0
   -8.3193   -0.3683  -18.6511 H   0  0  0  0  0  0  0  0  0  0  0  0
   -5.1760    1.4326  -17.4900 H   0  0  0  0  0  0  0  0  0  0  0  0
   -4.3394    1.4248  -19.4891 H   0  0  0  0  0  0  0  0  0  0  0  0
   -4.6546   -0.3400  -22.1914 H   0  0  0  0  0  0  0  0  0  0  0  0
   -6.0671    0.6313  -22.7280 H   0  0  0  0  0  0  0  0  0  0  0  0
   -4.5959    1.4532  -22.1063 H   0  0  0  0  0  0  0  0  0  0  0  0
 20 21  2  0  0  0  0
 19 20  1  0  0  0  0
 21 22  1  0  0  0  0
 18 19  2  0  0  0  0
 22 23  2  0  0  0  0
 18 23  1  0  0  0  0
 17 18  1  0  0  0  0
 23 24  1  0  0  0  0
 15 16  2  0  0  0  0
 15 17  1  0  0  0  0
 14 15  1  0  0  0  0
  8 14  1  0  0  0  0
 12 13  2  0  0  0  0
 11 12  1  0  0  0  0
  7  8  1  0  0  0  0
  8  9  1  0  0  0  0
 10 11  1  0  0  0  0
  6  7  2  3  0  0  0
  5  6  1  0  0  0  0
  9 10  2  0  0  0  0
  2  5  1  0  0  0  0
  2  3  2  0  0  0  0
  1  2  1  0  0  0  0
  2  4  2  0  0  0  0
  1 25  1  0  0  0  0
  1 26  1  0  0  0  0
  1 27  1  0  0  0  0
  5 28  1  0  0  0  0
  6 29  1  0  0  0  0
  7 30  1  0  0  0  0
  8 31  1  0  0  0  0
  9 32  1  0  0  0  0
 10 33  1  0  0  0  0
 11 34  1  0  0  0  0
 11 35  1  0  0  0  0
 12 36  1  0  0  0  0
 13 37  1  0  0  0  0
 13 38  1  0  0  0  0
 14 39  1  0  0  0  0
 14 40  1  0  0  0  0
 17 41  1  0  0  0  0
 19 42  1  0  0  0  0
 21 43  1  0  0  0  0
 22 44  1  0  0  0  0
 24 45  1  0  0  0  0
 24 46  1  0  0  0  0
 24 47  1  0  0  0  0
M  END
> <Chemgauss4>
-13.097584

$$$$
