stable:False satoms:7 tatoms:24 sratio:0.2916666666666667
  -OEChem-07092417513D

 24 25  0     1  0  0  0  0  0999 V2000
    6.6101   -4.8732   26.4143 C   0  0  0  0  0  0  0  0  0  0  0  0
    8.1769   -4.3185   26.1090 S   0  0  0  0  0  0  0  0  0  0  0  0
    9.0461   -5.4668   26.0599 O   0  0  0  0  0  0  0  0  0  0  0  0
    8.5771   -3.4263   27.1633 O   0  0  0  0  0  0  0  0  0  0  0  0
    8.1164   -3.5783   24.6656 N   0  0  0  0  0  0  0  0  0  0  0  0
    8.9713   -2.8935   24.1422 C   0  0  0  0  0  0  0  0  0  0  0  0
    9.4188   -1.9640   23.5257 C   0  0  0  0  0  0  0  0  0  0  0  0
   10.3312   -1.1402   23.2526 C   0  0  1  0  0  0  0  0  0  0  0  0
   11.0699    0.0065   24.3337 C   0  0  0  0  0  0  0  0  0  0  0  0
   12.1193    0.2881   24.2723 C   0  0  0  0  0  0  0  0  0  0  0  0
   13.1750   -0.1856   23.5052 C   0  0  0  0  0  0  0  0  0  0  0  0
   12.7464   -1.2977   22.6300 C   0  0  0  0  0  0  0  0  0  0  0  0
   11.7890   -1.7102   22.5030 C   0  0  0  0  0  0  0  0  0  0  0  0
    9.7358   -0.5528   22.3670 C   0  0  0  0  0  0  0  0  0  0  0  0
    9.0715    0.0407   21.3903 C   0  0  0  0  0  0  0  0  0  0  0  0
    9.5525    0.9641   20.9359 O   0  0  0  0  0  0  0  0  0  0  0  0
    7.9226   -0.5584   21.0955 N   0  0  0  0  0  0  0  0  0  0  0  0
    7.1759   -0.0891   20.1706 C   0  0  0  0  0  0  0  0  0  0  0  0
    7.2459   -0.0029   18.8641 C   0  0  0  0  0  0  0  0  0  0  0  0
    6.7691    0.3269   17.7746 N   0  0  0  0  0  0  0  0  0  0  0  0
    5.6308    0.9030   18.2642 C   0  0  0  0  0  0  0  0  0  0  0  0
    5.2394    0.9920   19.3766 C   0  0  0  0  0  0  0  0  0  0  0  0
    5.8210    0.5553   20.5195 C   0  0  0  0  0  0  0  0  0  0  0  0
    5.2719    0.6907   21.9615 C   0  0  0  0  0  0  0  0  0  0  0  0
 20 21  2  0  0  0  0
 19 20  1  0  0  0  0
 21 22  1  0  0  0  0
 18 19  2  0  0  0  0
 22 23  2  0  0  0  0
 18 23  1  0  0  0  0
 17 18  1  0  0  0  0
 23 24  1  0  0  0  0
 15 16  2  0  0  0  0
 15 17  1  0  0  0  0
 14 15  1  0  0  0  0
  8 14  1  0  0  0  0
 12 13  1  0  0  0  0
  8 13  1  0  0  0  0
 11 12  2  0  0  0  0
  7  8  1  0  0  0  0
  8  9  1  0  0  0  0
 10 11  1  0  0  0  0
  6  7  2  3  0  0  0
  5  6  1  0  0  0  0
  9 10  2  0  0  0  0
  2  5  1  0  0  0  0
  2  3  2  0  0  0  0
  1  2  1  0  0  0  0
  2  4  2  0  0  0  0
M  END
> <Shapegauss>
-286.423950

$$$$
