stable:False satoms:7 tatoms:24 sratio:0.2916666666666667
  -OEChem-08062417523D

 45 46  0     1  0  0  0  0  0999 V2000
    6.3569   -5.1444   26.2080 C   0  0  0  0  0  0  0  0  0  0  0  0
    7.9284   -4.5479   26.0339 S   0  0  0  0  0  0  0  0  0  0  0  0
    8.8232   -5.6767   25.9937 O   0  0  0  0  0  0  0  0  0  0  0  0
    8.2382   -3.6969   27.1509 O   0  0  0  0  0  0  0  0  0  0  0  0
    7.9487   -3.7447   24.6235 N   0  0  0  0  0  0  0  0  0  0  0  0
    8.8219   -3.0215   24.1895 C   0  0  0  0  0  0  0  0  0  0  0  0
    9.2897   -2.0572   23.6459 C   0  0  0  0  0  0  0  0  0  0  0  0
   10.2005   -1.2054   23.4714 C   0  0  1  0  0  0  0  0  0  0  0  0
   10.8407   -0.0951   24.6491 C   0  0  0  0  0  0  0  0  0  0  0  0
   11.8857    0.2081   24.6712 C   0  0  0  0  0  0  0  0  0  0  0  0
   13.0001   -0.2111   23.9574 C   0  0  0  0  0  0  0  0  0  0  0  0
   12.6547   -1.2904   23.0074 C   0  0  0  0  0  0  0  0  0  0  0  0
   11.7170   -1.7143   22.7980 C   0  0  0  0  0  0  0  0  0  0  0  0
    9.6532   -0.5897   22.5740 C   0  0  0  0  0  0  0  0  0  0  0  0
    9.0432    0.0348   21.5814 C   0  0  0  0  0  0  0  0  0  0  0  0
    9.5337    0.9864   21.2014 O   0  0  0  0  0  0  0  0  0  0  0  0
    7.9296   -0.5713   21.1837 N   0  0  0  0  0  0  0  0  0  0  0  0
    7.2365   -0.0747   20.2317 C   0  0  0  0  0  0  0  0  0  0  0  0
    7.3918    0.0715   18.9380 C   0  0  0  0  0  0  0  0  0  0  0  0
    6.9819    0.4412   17.8341 N   0  0  0  0  0  0  0  0  0  0  0  0
    5.8014    0.9737   18.2703 C   0  0  0  0  0  0  0  0  0  0  0  0
    5.3348    1.0054   19.3564 C   0  0  0  0  0  0  0  0  0  0  0  0
    5.8479    0.5285   20.5159 C   0  0  0  0  0  0  0  0  0  0  0  0
    5.2009    0.5888   21.9220 C   0  0  0  0  0  0  0  0  0  0  0  0
    6.2786   -5.7027   27.1525 H   0  0  0  0  0  0  0  0  0  0  0  0
    5.6455   -4.3055   26.2180 H   0  0  0  0  0  0  0  0  0  0  0  0
    6.1234   -5.8132   25.3664 H   0  0  0  0  0  0  0  0  0  0  0  0
    7.1315   -3.1690   24.6478 H   0  0  0  0  0  0  0  0  0  0  0  0
    9.7112   -3.5785   24.4452 H   0  0  0  0  0  0  0  0  0  0  0  0
    8.5306   -1.7710   22.9329 H   0  0  0  0  0  0  0  0  0  0  0  0
   10.1703    0.3114   25.3918 H   0  0  0  0  0  0  0  0  0  0  0  0
   12.0969    0.9874   25.3885 H   0  0  0  0  0  0  0  0  0  0  0  0
   13.9919    0.1983   24.0801 H   0  0  0  0  0  0  0  0  0  0  0  0
   13.4839   -1.7008   22.4503 H   0  0  0  0  0  0  0  0  0  0  0  0
   11.5950   -1.6233   21.7086 H   0  0  0  0  0  0  0  0  0  0  0  0
   11.8122   -2.7761   23.0690 H   0  0  0  0  0  0  0  0  0  0  0  0
   10.6033   -0.0998   22.3144 H   0  0  0  0  0  0  0  0  0  0  0  0
    9.1126    0.0248   23.3090 H   0  0  0  0  0  0  0  0  0  0  0  0
    7.6338   -1.4163   21.6293 H   0  0  0  0  0  0  0  0  0  0  0  0
    8.3711   -0.3373   18.7374 H   0  0  0  0  0  0  0  0  0  0  0  0
    5.2004    1.4385   17.5027 H   0  0  0  0  0  0  0  0  0  0  0  0
    4.3674    1.4793   19.4347 H   0  0  0  0  0  0  0  0  0  0  0  0
    4.6006   -0.3177   22.0891 H   0  0  0  0  0  0  0  0  0  0  0  0
    5.9897    0.6520   22.6860 H   0  0  0  0  0  0  0  0  0  0  0  0
    4.5530    1.4751   21.9896 H   0  0  0  0  0  0  0  0  0  0  0  0
 20 21  2  0  0  0  0
 19 20  1  0  0  0  0
 21 22  1  0  0  0  0
 18 19  2  0  0  0  0
 22 23  2  0  0  0  0
 18 23  1  0  0  0  0
 17 18  1  0  0  0  0
 23 24  1  0  0  0  0
 15 16  2  0  0  0  0
 15 17  1  0  0  0  0
 14 15  1  0  0  0  0
  8 14  1  0  0  0  0
 12 13  1  0  0  0  0
  8 13  1  0  0  0  0
 11 12  2  0  0  0  0
  7  8  1  0  0  0  0
  8  9  1  0  0  0  0
 10 11  1  0  0  0  0
  6  7  2  3  0  0  0
  5  6  1  0  0  0  0
  9 10  2  0  0  0  0
  2  5  1  0  0  0  0
  2  3  2  0  0  0  0
  1  2  1  0  0  0  0
  2  4  2  0  0  0  0
  1 25  1  0  0  0  0
  1 26  1  0  0  0  0
  1 27  1  0  0  0  0
  5 28  1  0  0  0  0
  6 29  1  0  0  0  0
  7 30  1  0  0  0  0
  9 31  1  0  0  0  0
 10 32  1  0  0  0  0
 11 33  1  0  0  0  0
 12 34  1  0  0  0  0
 13 35  1  0  0  0  0
 13 36  1  0  0  0  0
 14 37  1  0  0  0  0
 14 38  1  0  0  0  0
 17 39  1  0  0  0  0
 19 40  1  0  0  0  0
 21 41  1  0  0  0  0
 22 42  1  0  0  0  0
 24 43  1  0  0  0  0
 24 44  1  0  0  0  0
 24 45  1  0  0  0  0
M  END
> <Chemgauss4>
-13.439935

$$$$
