MODEL 1
REMARK VINA RESULT:    -5.382      0.000      0.000
REMARK INTER + INTRA:          -7.327
REMARK INTER:                  -6.641
REMARK INTRA:                  -0.686
REMARK UNBOUND:                -0.686
REMARK  4 active torsions:
REMARK  status: ('A' for Active; 'I' for Inactive)
REMARK    1  A    between atoms: C_1  and  N_13 
REMARK    2  A    between atoms: S_2  and  C_6 
REMARK    3  A    between atoms: C_5  and  N_9 
REMARK       I    between atoms: N_13  and  C_16 
REMARK    4  A    between atoms: C_16  and  O_19 
ROOT
HETATM    1  C   UNL     1       7.337  -4.874  22.833  1.00  0.00     0.158 A 
HETATM    2  C   UNL     1       6.176  -5.301  23.622  1.00  0.00     0.131 A 
HETATM    3  N   UNL     1       7.321  -5.719  21.786  1.00  0.00    -0.269 N 
ATOM      4  HN  UNL     1       7.954  -5.691  20.987  1.00  0.00     0.190 HD
HETATM    5  N   UNL     1       5.639  -6.316  23.045  1.00  0.00    -0.276 N 
ATOM      6  HN  UNL     1       4.814  -6.831  23.351  1.00  0.00     0.189 HD
HETATM    7  N   UNL     1       6.382  -6.561  21.962  1.00  0.00    -0.240 N 
ATOM      8  HN  UNL     1       6.212  -7.347  21.335  1.00  0.00     0.208 HD
ENDROOT
BRANCH   1   9
HETATM    9  N   UNL     1       8.237  -3.948  23.133  1.00  0.00    -0.329 N 
HETATM   10  C   UNL     1       8.248  -2.772  22.507  1.00  0.00     0.083 C 
HETATM   11  C   UNL     1       7.008  -2.028  22.127  1.00  0.00     0.089 C 
ATOM     12  HN  UNL     1       8.932  -4.140  23.855  1.00  0.00     0.168 HD
BRANCH  10  13
HETATM   13  N   UNL     1       9.371  -2.155  22.214  1.00  0.00    -0.292 N 
HETATM   14  C   UNL     1      10.360  -1.823  23.068  1.00  0.00     0.365 C 
HETATM   15  O   UNL     1      11.512  -1.671  22.755  1.00  0.00    -0.238 OA
ATOM     16  HN  UNL     1       9.509  -1.900  21.236  1.00  0.00     0.172 HD
BRANCH  14  17
HETATM   17  O   UNL     1       9.970  -1.694  24.373  1.00  0.00    -0.309 OA
HETATM   18  C   UNL     1      10.018  -0.399  24.934  1.00  0.00     0.215 C 
ENDBRANCH  14  17
ENDBRANCH  10  13
ENDBRANCH   1   9
BRANCH   2  19
HETATM   19  S   UNL     1       5.739  -4.465  25.037  1.00  0.00    -0.112 SA
HETATM   20  C   UNL     1       6.810  -5.350  26.220  1.00  0.00     0.097 C 
ENDBRANCH   2  19
TORSDOF 4
ENDMDL
MODEL 2
REMARK VINA RESULT:    -5.211     26.170     28.031
REMARK INTER + INTRA:          -7.116
REMARK INTER:                  -6.774
REMARK INTRA:                  -0.342
REMARK UNBOUND:                -0.686
REMARK  4 active torsions:
REMARK  status: ('A' for Active; 'I' for Inactive)
REMARK    1  A    between atoms: C_1  and  N_13 
REMARK    2  A    between atoms: S_2  and  C_6 
REMARK    3  A    between atoms: C_5  and  N_9 
REMARK       I    between atoms: N_13  and  C_16 
REMARK    4  A    between atoms: C_16  and  O_19 
ROOT
HETATM    1  C   UNL     1       9.043  14.683   2.037  1.00  0.00     0.158 A 
HETATM    2  C   UNL     1       9.110  16.133   2.255  1.00  0.00     0.131 A 
HETATM    3  N   UNL     1      10.030  14.212   2.821  1.00  0.00    -0.269 N 
ATOM      4  HN  UNL     1      10.252  13.228   2.974  1.00  0.00     0.190 HD
HETATM    5  N   UNL     1      10.086  16.383   3.052  1.00  0.00    -0.276 N 
ATOM      6  HN  UNL     1      10.379  17.298   3.395  1.00  0.00     0.189 HD
HETATM    7  N   UNL     1      10.639  15.202   3.340  1.00  0.00    -0.240 N 
ATOM      8  HN  UNL     1      11.471  15.103   3.922  1.00  0.00     0.208 HD
ENDROOT
BRANCH   1   9
HETATM    9  N   UNL     1       8.267  14.015   1.195  1.00  0.00    -0.329 N 
HETATM   10  C   UNL     1       7.150  13.422   1.614  1.00  0.00     0.083 C 
HETATM   11  C   UNL     1       6.231  14.019   2.632  1.00  0.00     0.089 C 
ATOM     12  HN  UNL     1       8.530  13.953   0.211  1.00  0.00     0.168 HD
BRANCH  10  13
HETATM   13  N   UNL     1       6.751  12.271   1.121  1.00  0.00    -0.292 N 
HETATM   14  C   UNL     1       6.710  11.085   1.762  1.00  0.00     0.365 C 
HETATM   15  O   UNL     1       5.973  10.178   1.476  1.00  0.00    -0.238 OA
ATOM     16  HN  UNL     1       6.438  12.274   0.150  1.00  0.00     0.172 HD
BRANCH  14  17
HETATM   17  O   UNL     1       7.569  10.978   2.821  1.00  0.00    -0.309 OA
HETATM   18  C   UNL     1       6.996  10.794   4.098  1.00  0.00     0.215 C 
ENDBRANCH  14  17
ENDBRANCH  10  13
ENDBRANCH   1   9
BRANCH   2  19
HETATM   19  S   UNL     1       7.987  17.169   1.510  1.00  0.00    -0.112 SA
HETATM   20  C   UNL     1       9.103  17.962   0.303  1.00  0.00     0.097 C 
ENDBRANCH   2  19
TORSDOF 4
ENDMDL
MODEL 3
REMARK VINA RESULT:    -5.149     24.800     25.974
REMARK INTER + INTRA:          -7.039
REMARK INTER:                  -6.431
REMARK INTRA:                  -0.608
REMARK UNBOUND:                -0.686
REMARK  4 active torsions:
REMARK  status: ('A' for Active; 'I' for Inactive)
REMARK    1  A    between atoms: C_1  and  N_13 
REMARK    2  A    between atoms: S_2  and  C_6 
REMARK    3  A    between atoms: C_5  and  N_9 
REMARK       I    between atoms: N_13  and  C_16 
REMARK    4  A    between atoms: C_16  and  O_19 
ROOT
HETATM    1  C   UNL     1       7.097  11.407   2.290  1.00  0.00     0.158 A 
HETATM    2  C   UNL     1       6.186  10.478   2.970  1.00  0.00     0.131 A 
HETATM    3  N   UNL     1       6.830  11.197   0.988  1.00  0.00    -0.269 N 
ATOM      4  HN  UNL     1       7.236  11.710   0.206  1.00  0.00     0.190 HD
HETATM    5  N   UNL     1       5.540   9.813   2.079  1.00  0.00    -0.276 N 
ATOM      6  HN  UNL     1       4.831   9.098   2.242  1.00  0.00     0.189 HD
HETATM    7  N   UNL     1       5.984  10.249   0.898  1.00  0.00    -0.240 N 
ATOM      8  HN  UNL     1       5.676   9.860   0.007  1.00  0.00     0.208 HD
ENDROOT
BRANCH   1   9
HETATM    9  N   UNL     1       8.025  12.186   2.828  1.00  0.00    -0.329 N 
HETATM   10  C   UNL     1       8.000  13.506   2.651  1.00  0.00     0.083 C 
HETATM   11  C   UNL     1       6.742  14.315   2.641  1.00  0.00     0.089 C 
ATOM     12  HN  UNL     1       8.769  11.768   3.387  1.00  0.00     0.168 HD
BRANCH  10  13
HETATM   13  N   UNL     1       9.105  14.206   2.510  1.00  0.00    -0.292 N 
HETATM   14  C   UNL     1       9.999  14.510   3.472  1.00  0.00     0.365 C 
HETATM   15  O   UNL     1      11.161  14.751   3.274  1.00  0.00    -0.238 OA
ATOM     16  HN  UNL     1       9.307  14.555   1.573  1.00  0.00     0.172 HD
BRANCH  14  17
HETATM   17  O   UNL     1       9.496  14.499   4.744  1.00  0.00    -0.309 OA
HETATM   18  C   UNL     1       9.509  15.721   5.452  1.00  0.00     0.215 C 
ENDBRANCH  14  17
ENDBRANCH  10  13
ENDBRANCH   1   9
BRANCH   2  19
HETATM   19  S   UNL     1       6.110  10.431   4.667  1.00  0.00    -0.112 SA
HETATM   20  C   UNL     1       5.014  11.866   4.933  1.00  0.00     0.097 C 
ENDBRANCH   2  19
TORSDOF 4
ENDMDL
MODEL 4
REMARK VINA RESULT:    -5.147     26.493     28.326
REMARK INTER + INTRA:          -7.037
REMARK INTER:                  -6.321
REMARK INTRA:                  -0.716
REMARK UNBOUND:                -0.686
REMARK  4 active torsions:
REMARK  status: ('A' for Active; 'I' for Inactive)
REMARK    1  A    between atoms: C_1  and  N_13 
REMARK    2  A    between atoms: S_2  and  C_6 
REMARK    3  A    between atoms: C_5  and  N_9 
REMARK       I    between atoms: N_13  and  C_16 
REMARK    4  A    between atoms: C_16  and  O_19 
ROOT
HETATM    1  C   UNL     1       8.978  16.125   1.787  1.00  0.00     0.158 A 
HETATM    2  C   UNL     1       8.825  17.550   2.105  1.00  0.00     0.131 A 
HETATM    3  N   UNL     1       9.478  16.144   0.538  1.00  0.00    -0.269 N 
ATOM      4  HN  UNL     1       9.769  15.329  -0.001  1.00  0.00     0.190 HD
HETATM    5  N   UNL     1       9.175  18.239   1.079  1.00  0.00    -0.276 N 
ATOM      6  HN  UNL     1       9.182  19.255   0.996  1.00  0.00     0.189 HD
HETATM    7  N   UNL     1       9.526  17.354   0.142  1.00  0.00    -0.240 N 
ATOM      8  HN  UNL     1       9.805  17.621  -0.801  1.00  0.00     0.208 HD
ENDROOT
BRANCH   1   9
HETATM    9  N   UNL     1       8.617  15.078   2.516  1.00  0.00    -0.329 N 
HETATM   10  C   UNL     1       9.520  14.365   3.188  1.00  0.00     0.083 C 
HETATM   11  C   UNL     1      10.692  14.969   3.893  1.00  0.00     0.089 C 
ATOM     12  HN  UNL     1       7.633  14.815   2.563  1.00  0.00     0.168 HD
BRANCH  10  13
HETATM   13  N   UNL     1       9.416  13.060   3.313  1.00  0.00    -0.292 N 
HETATM   14  C   UNL     1       8.349  12.372   3.765  1.00  0.00     0.365 C 
HETATM   15  O   UNL     1       8.100  11.230   3.478  1.00  0.00    -0.238 OA
ATOM     16  HN  UNL     1      10.230  12.510   3.038  1.00  0.00     0.172 HD
BRANCH  14  17
HETATM   17  O   UNL     1       7.512  13.084   4.579  1.00  0.00    -0.309 OA
HETATM   18  C   UNL     1       6.127  12.843   4.448  1.00  0.00     0.215 C 
ENDBRANCH  14  17
ENDBRANCH  10  13
ENDBRANCH   1   9
BRANCH   2  19
HETATM   19  S   UNL     1       8.277  18.037   3.640  1.00  0.00    -0.112 SA
HETATM   20  C   UNL     1       9.867  18.607   4.330  1.00  0.00     0.097 C 
ENDBRANCH   2  19
TORSDOF 4
ENDMDL
MODEL 5
REMARK VINA RESULT:    -5.043      4.550      5.977
REMARK INTER + INTRA:          -6.909
REMARK INTER:                  -6.254
REMARK INTRA:                  -0.654
REMARK UNBOUND:                -0.686
REMARK  4 active torsions:
REMARK  status: ('A' for Active; 'I' for Inactive)
REMARK    1  A    between atoms: C_1  and  N_13 
REMARK    2  A    between atoms: S_2  and  C_6 
REMARK    3  A    between atoms: C_5  and  N_9 
REMARK       I    between atoms: N_13  and  C_16 
REMARK    4  A    between atoms: C_16  and  O_19 
ROOT
HETATM    1  C   UNL     1       5.744  -0.603  19.641  1.00  0.00     0.158 A 
HETATM    2  C   UNL     1       5.334   0.751  19.249  1.00  0.00     0.131 A 
HETATM    3  N   UNL     1       5.844  -1.244  18.462  1.00  0.00    -0.269 N 
ATOM      4  HN  UNL     1       6.165  -2.203  18.331  1.00  0.00     0.190 HD
HETATM    5  N   UNL     1       5.191   0.782  17.972  1.00  0.00    -0.276 N 
ATOM      6  HN  UNL     1       4.919   1.584  17.405  1.00  0.00     0.189 HD
HETATM    7  N   UNL     1       5.471  -0.450  17.539  1.00  0.00    -0.240 N 
ATOM      8  HN  UNL     1       5.393  -0.729  16.562  1.00  0.00     0.208 HD
ENDROOT
BRANCH   1   9
HETATM    9  N   UNL     1       5.882  -1.096  20.864  1.00  0.00    -0.329 N 
HETATM   10  C   UNL     1       7.088  -1.285  21.396  1.00  0.00     0.083 C 
HETATM   11  C   UNL     1       8.233  -0.343  21.204  1.00  0.00     0.089 C 
ATOM     12  HN  UNL     1       5.050  -1.333  21.406  1.00  0.00     0.168 HD
BRANCH  10  13
HETATM   13  N   UNL     1       7.347  -2.313  22.175  1.00  0.00    -0.292 N 
HETATM   14  C   UNL     1       6.649  -2.703  23.261  1.00  0.00     0.365 C 
HETATM   15  O   UNL     1       6.618  -3.828  23.687  1.00  0.00    -0.238 OA
ATOM     16  HN  UNL     1       8.162  -2.876  21.932  1.00  0.00     0.172 HD
BRANCH  14  17
HETATM   17  O   UNL     1       5.921  -1.711  23.859  1.00  0.00    -0.309 OA
HETATM   18  C   UNL     1       6.233  -1.404  25.201  1.00  0.00     0.215 C 
ENDBRANCH  14  17
ENDBRANCH  10  13
ENDBRANCH   1   9
BRANCH   2  19
HETATM   19  S   UNL     1       5.143   1.968  20.420  1.00  0.00    -0.112 SA
HETATM   20  C   UNL     1       3.395   2.386  20.099  1.00  0.00     0.097 C 
ENDBRANCH   2  19
TORSDOF 4
ENDMDL
MODEL 6
REMARK VINA RESULT:    -5.038      3.308      5.523
REMARK INTER + INTRA:          -6.902
REMARK INTER:                  -6.149
REMARK INTRA:                  -0.753
REMARK UNBOUND:                -0.686
REMARK  4 active torsions:
REMARK  status: ('A' for Active; 'I' for Inactive)
REMARK    1  A    between atoms: C_1  and  N_13 
REMARK    2  A    between atoms: S_2  and  C_6 
REMARK    3  A    between atoms: C_5  and  N_9 
REMARK       I    between atoms: N_13  and  C_16 
REMARK    4  A    between atoms: C_16  and  O_19 
ROOT
HETATM    1  C   UNL     1       9.401  -1.595  24.670  1.00  0.00     0.158 A 
HETATM    2  C   UNL     1      10.229  -0.385  24.743  1.00  0.00     0.131 A 
HETATM    3  N   UNL     1       8.699  -1.552  25.818  1.00  0.00    -0.269 N 
ATOM      4  HN  UNL     1       7.969  -2.208  26.095  1.00  0.00     0.190 HD
HETATM    5  N   UNL     1      10.000   0.202  25.863  1.00  0.00    -0.276 N 
ATOM      6  HN  UNL     1      10.420   1.069  26.198  1.00  0.00     0.189 HD
HETATM    7  N   UNL     1       9.100  -0.553  26.499  1.00  0.00    -0.240 N 
ATOM      8  HN  UNL     1       8.766  -0.349  27.440  1.00  0.00     0.208 HD
ENDROOT
BRANCH   1   9
HETATM    9  N   UNL     1       9.418  -2.546  23.747  1.00  0.00    -0.329 N 
HETATM   10  C   UNL     1       8.399  -2.701  22.902  1.00  0.00     0.083 C 
HETATM   11  C   UNL     1       7.646  -1.559  22.299  1.00  0.00     0.089 C 
ATOM     12  HN  UNL     1      10.223  -3.169  23.683  1.00  0.00     0.168 HD
BRANCH  10  13
HETATM   13  N   UNL     1       8.008  -3.891  22.503  1.00  0.00    -0.292 N 
HETATM   14  C   UNL     1       7.607  -4.916  23.282  1.00  0.00     0.365 C 
HETATM   15  O   UNL     1       6.869  -5.797  22.926  1.00  0.00    -0.238 OA
ATOM     16  HN  UNL     1       8.006  -4.056  21.496  1.00  0.00     0.172 HD
BRANCH  14  17
HETATM   17  O   UNL     1       8.084  -4.881  24.563  1.00  0.00    -0.309 OA
HETATM   18  C   UNL     1       7.138  -4.997  25.605  1.00  0.00     0.215 C 
ENDBRANCH  14  17
ENDBRANCH  10  13
ENDBRANCH   1   9
BRANCH   2  19
HETATM   19  S   UNL     1      11.257   0.035  23.456  1.00  0.00    -0.112 SA
HETATM   20  C   UNL     1      12.859  -0.289  24.268  1.00  0.00     0.097 C 
ENDBRANCH   2  19
TORSDOF 4
ENDMDL
MODEL 7
REMARK VINA RESULT:    -5.031     21.545     22.931
REMARK INTER + INTRA:          -6.894
REMARK INTER:                  -6.239
REMARK INTRA:                  -0.655
REMARK UNBOUND:                -0.686
REMARK  4 active torsions:
REMARK  status: ('A' for Active; 'I' for Inactive)
REMARK    1  A    between atoms: C_1  and  N_13 
REMARK    2  A    between atoms: S_2  and  C_6 
REMARK    3  A    between atoms: C_5  and  N_9 
REMARK       I    between atoms: N_13  and  C_16 
REMARK    4  A    between atoms: C_16  and  O_19 
ROOT
HETATM    1  C   UNL     1       4.830   6.308   4.355  1.00  0.00     0.158 A 
HETATM    2  C   UNL     1       5.155   7.682   4.756  1.00  0.00     0.131 A 
HETATM    3  N   UNL     1       5.889   5.604   4.796  1.00  0.00    -0.269 N 
ATOM      4  HN  UNL     1       5.994   4.591   4.746  1.00  0.00     0.190 HD
HETATM    5  N   UNL     1       6.312   7.683   5.315  1.00  0.00    -0.276 N 
ATOM      6  HN  UNL     1       6.804   8.487   5.703  1.00  0.00     0.189 HD
HETATM    7  N   UNL     1       6.737   6.417   5.285  1.00  0.00    -0.240 N 
ATOM      8  HN  UNL     1       7.655   6.130   5.623  1.00  0.00     0.208 HD
ENDROOT
BRANCH   1   9
HETATM    9  N   UNL     1       3.794   5.884   3.643  1.00  0.00    -0.329 N 
HETATM   10  C   UNL     1       2.900   5.045   4.165  1.00  0.00     0.083 C 
HETATM   11  C   UNL     1       2.420   5.125   5.579  1.00  0.00     0.089 C 
ATOM     12  HN  UNL     1       3.681   6.205   2.682  1.00  0.00     0.168 HD
BRANCH  10  13
HETATM   13  N   UNL     1       2.339   4.099   3.446  1.00  0.00    -0.292 N 
HETATM   14  C   UNL     1       1.959   4.179   2.154  1.00  0.00     0.365 C 
HETATM   15  O   UNL     1       1.863   3.239   1.410  1.00  0.00    -0.238 OA
ATOM     16  HN  UNL     1       2.172   3.208   3.914  1.00  0.00     0.172 HD
BRANCH  14  17
HETATM   17  O   UNL     1       1.709   5.448   1.710  1.00  0.00    -0.309 OA
HETATM   18  C   UNL     1       0.357   5.818   1.546  1.00  0.00     0.215 C 
ENDBRANCH  14  17
ENDBRANCH  10  13
ENDBRANCH   1   9
BRANCH   2  19
HETATM   19  S   UNL     1       4.056   8.947   4.467  1.00  0.00    -0.112 SA
HETATM   20  C   UNL     1       4.841   9.658   2.981  1.00  0.00     0.097 C 
ENDBRANCH   2  19
TORSDOF 4
ENDMDL
MODEL 8
REMARK VINA RESULT:    -4.946     26.786     28.117
REMARK INTER + INTRA:          -6.788
REMARK INTER:                  -6.390
REMARK INTRA:                  -0.399
REMARK UNBOUND:                -0.686
REMARK  4 active torsions:
REMARK  status: ('A' for Active; 'I' for Inactive)
REMARK    1  A    between atoms: C_1  and  N_13 
REMARK    2  A    between atoms: S_2  and  C_6 
REMARK    3  A    between atoms: C_5  and  N_9 
REMARK       I    between atoms: N_13  and  C_16 
REMARK    4  A    between atoms: C_16  and  O_19 
ROOT
HETATM    1  C   UNL     1       9.944  14.336   3.032  1.00  0.00     0.158 A 
HETATM    2  C   UNL     1       8.862  14.859   2.188  1.00  0.00     0.131 A 
HETATM    3  N   UNL     1       9.476  13.135   3.417  1.00  0.00    -0.269 N 
ATOM      4  HN  UNL     1       9.983  12.448   3.974  1.00  0.00     0.190 HD
HETATM    5  N   UNL     1       7.898  14.009   2.184  1.00  0.00    -0.276 N 
ATOM      6  HN  UNL     1       7.013  14.088   1.684  1.00  0.00     0.189 HD
HETATM    7  N   UNL     1       8.292  13.000   2.967  1.00  0.00    -0.240 N 
ATOM      8  HN  UNL     1       7.700  12.199   3.184  1.00  0.00     0.208 HD
ENDROOT
BRANCH   1   9
HETATM    9  N   UNL     1      11.061  14.945   3.403  1.00  0.00    -0.329 N 
HETATM   10  C   UNL     1      11.104  15.687   4.508  1.00  0.00     0.083 C 
HETATM   11  C   UNL     1      10.396  15.325   5.774  1.00  0.00     0.089 C 
ATOM     12  HN  UNL     1      11.901  14.843   2.833  1.00  0.00     0.168 HD
BRANCH  10  13
HETATM   13  N   UNL     1      11.820  16.789   4.574  1.00  0.00    -0.292 N 
HETATM   14  C   UNL     1      11.358  18.056   4.586  1.00  0.00     0.365 C 
HETATM   15  O   UNL     1      11.941  18.992   5.068  1.00  0.00    -0.238 OA
ATOM     16  HN  UNL     1      12.832  16.673   4.621  1.00  0.00     0.172 HD
BRANCH  14  17
HETATM   17  O   UNL     1      10.122  18.219   4.024  1.00  0.00    -0.309 OA
HETATM   18  C   UNL     1       9.744  19.533   3.672  1.00  0.00     0.215 C 
ENDBRANCH  14  17
ENDBRANCH  10  13
ENDBRANCH   1   9
BRANCH   2  19
HETATM   19  S   UNL     1       9.028  16.357   1.402  1.00  0.00    -0.112 SA
HETATM   20  C   UNL     1       7.455  17.119   1.927  1.00  0.00     0.097 C 
ENDBRANCH   2  19
TORSDOF 4
ENDMDL
MODEL 9
REMARK VINA RESULT:    -4.910      3.253      5.646
REMARK INTER + INTRA:          -6.744
REMARK INTER:                  -6.197
REMARK INTRA:                  -0.547
REMARK UNBOUND:                -0.686
REMARK  4 active torsions:
REMARK  status: ('A' for Active; 'I' for Inactive)
REMARK    1  A    between atoms: C_1  and  N_13 
REMARK    2  A    between atoms: S_2  and  C_6 
REMARK    3  A    between atoms: C_5  and  N_9 
REMARK       I    between atoms: N_13  and  C_16 
REMARK    4  A    between atoms: C_16  and  O_19 
ROOT
HETATM    1  C   UNL     1       9.088  -1.856  22.029  1.00  0.00     0.158 A 
HETATM    2  C   UNL     1       8.872  -0.489  21.540  1.00  0.00     0.131 A 
HETATM    3  N   UNL     1      10.422  -1.912  22.195  1.00  0.00    -0.269 N 
ATOM      4  HN  UNL     1      10.942  -2.700  22.581  1.00  0.00     0.190 HD
HETATM    5  N   UNL     1      10.013   0.089  21.422  1.00  0.00    -0.276 N 
ATOM      6  HN  UNL     1      10.188   1.044  21.110  1.00  0.00     0.189 HD
HETATM    7  N   UNL     1      10.925  -0.815  21.790  1.00  0.00    -0.240 N 
ATOM      8  HN  UNL     1      11.929  -0.642  21.751  1.00  0.00     0.208 HD
ENDROOT
BRANCH   1   9
HETATM    9  N   UNL     1       8.196  -2.827  22.173  1.00  0.00    -0.329 N 
HETATM   10  C   UNL     1       8.154  -3.561  23.284  1.00  0.00     0.083 C 
HETATM   11  C   UNL     1       8.375  -3.002  24.653  1.00  0.00     0.089 C 
ATOM     12  HN  UNL     1       7.532  -3.013  21.422  1.00  0.00     0.168 HD
BRANCH  10  13
HETATM   13  N   UNL     1       7.870  -4.845  23.254  1.00  0.00    -0.292 N 
HETATM   14  C   UNL     1       6.899  -5.443  22.534  1.00  0.00     0.365 C 
HETATM   15  O   UNL     1       6.921  -6.592  22.179  1.00  0.00    -0.238 OA
ATOM     16  HN  UNL     1       8.446  -5.453  23.836  1.00  0.00     0.172 HD
BRANCH  14  17
HETATM   17  O   UNL     1       5.857  -4.626  22.190  1.00  0.00    -0.309 OA
HETATM   18  C   UNL     1       4.666  -4.753  22.937  1.00  0.00     0.215 C 
ENDBRANCH  14  17
ENDBRANCH  10  13
ENDBRANCH   1   9
BRANCH   2  19
HETATM   19  S   UNL     1       7.298   0.083  21.246  1.00  0.00    -0.112 SA
HETATM   20  C   UNL     1       7.351   0.107  19.421  1.00  0.00     0.097 C 
ENDBRANCH   2  19
TORSDOF 4
ENDMDL
