stable:False satoms:15 tatoms:24 sratio:0.625
  -OEChem-07092417383D

 24 23  0     1  0  0  0  0  0999 V2000
    6.8419   -4.7215   26.7303 F   0  0  0  0  0  0  0  0  0  0  0  0
    8.0858   -4.3531   26.3720 C   0  0  0  0  0  0  0  0  0  0  0  0
    8.8560   -5.3062   26.3022 O   0  0  0  0  0  0  0  0  0  0  0  0
    8.5221   -3.4937   27.3204 F   0  0  0  0  0  0  0  0  0  0  0  0
    7.8715   -3.5276   24.6906 S   0  0  0  0  0  0  0  0  0  0  0  0
    9.2805   -2.9082   24.4919 C   0  0  0  0  0  0  0  0  0  0  0  0
    9.4694   -1.6169   23.0981 N   0  0  0  0  0  0  0  0  0  0  0  0
   10.0896   -2.1995   24.0214 N   0  0  0  0  0  0  0  0  0  0  0  0
   10.8790    0.0124   23.4538 O   0  0  0  0  0  0  0  0  0  0  0  0
   12.7154    0.2556   24.2641 H   0  0  0  0  0  0  0  0  0  0  0  0
   12.2286   -0.2695   23.4849 C   0  3  0  0  0  0  0  0  0  0  0  0
   12.7260   -1.1113   22.6871 O   0  0  0  0  0  0  0  0  0  0  0  0
   11.9029   -1.5397   22.2595 H   0  0  0  0  0  0  0  0  0  0  0  0
    9.8652   -0.5532   22.6650 C   0  0  3  0  0  0  0  0  0  0  0  0
    9.0257    0.0723   21.4861 C   0  0  0  0  0  0  0  0  0  0  0  0
    9.5332    0.8638   20.7579 O   0  0  0  0  0  0  0  0  0  0  0  0
    7.7571   -0.3771   21.4503 N   0  0  0  0  0  0  0  0  0  0  0  0
    6.8691    0.3052   19.3890 C   0  0  0  0  0  0  0  0  0  0  0  0
    7.8170    0.0969   18.8858 H   0  0  0  0  0  0  0  0  0  0  0  0
    5.8519    0.6258   18.6138 N   0  0  0  0  0  0  0  0  0  0  0  0
    5.7752    0.8928   17.6871 H   0  0  0  0  0  0  0  0  0  0  0  0
    4.9770    0.8594   19.1078 H   0  0  0  0  0  0  0  0  0  0  0  0
    6.7625    0.1955   20.7450 C   0  0  0  0  0  0  0  0  0  0  0  0
    5.8815    0.5075   21.3326 H   0  0  0  0  0  0  0  0  0  0  0  0
 20 21  1  0  0  0  0
 20 22  1  0  0  0  0
 18 20  1  0  0  0  0
 18 19  1  0  0  0  0
 18 23  2  0  0  0  0
 23 24  1  0  0  0  0
 17 23  1  0  0  0  0
 15 16  2  0  0  0  0
 15 17  1  0  0  0  0
 14 15  1  0  0  0  0
 12 13  1  0  0  0  0
  7 14  1  0  0  0  0
  9 14  1  0  0  0  0
 11 12  1  0  0  0  0
  7  8  2  0  0  0  0
  9 11  1  0  0  0  0
 10 11  1  0  0  0  0
  6  8  1  0  0  0  0
  5  6  1  0  0  0  0
  2  5  1  0  0  0  0
  2  3  1  0  0  0  0
  1  2  1  0  0  0  0
  2  4  1  0  0  0  0
M  CHG  1  11   1
M  END
> <Shapegauss>
-198.587402

$$$$
