stable:False satoms:15 tatoms:24 sratio:0.625
  -OEChem-08062403593D

 29 28  0     1  0  0  0  0  0999 V2000
    6.6497   -5.4604   26.4973 F   0  0  0  0  0  0  0  0  0  0  0  0
    7.8436   -5.0429   26.0373 C   0  0  0  0  0  0  0  0  0  0  0  0
    8.6556   -5.9582   25.9404 O   0  0  0  0  0  0  0  0  0  0  0  0
    8.3015   -4.1306   26.9241 F   0  0  0  0  0  0  0  0  0  0  0  0
    7.4660   -4.2877   24.3516 S   0  0  0  0  0  0  0  0  0  0  0  0
    8.8227   -3.6059   24.0307 C   0  0  0  0  0  0  0  0  0  0  0  0
    8.8430   -2.3557   22.5877 N   0  0  0  0  0  0  0  0  0  0  0  0
    9.5577   -2.8744   23.4803 N   0  0  0  0  0  0  0  0  0  0  0  0
   10.1874   -0.6467   22.7883 O   0  0  0  0  0  0  0  0  0  0  0  0
   11.5486   -0.8596   22.7287 C   0  0  0  0  0  2  0  0  0  0  0  0
   12.0307   -1.7026   21.9227 O   0  0  0  0  0  0  0  0  0  0  0  0
   11.2025   -2.1860   21.5703 H   0  0  0  0  0  0  0  0  0  0  0  0
    9.1505   -1.2891   22.0941 C   0  0  3  0  0  0  0  0  0  0  0  0
    8.1967   -0.7474   20.9615 C   0  0  0  0  0  0  0  0  0  0  0  0
    8.6084    0.0428   20.1739 O   0  0  0  0  0  0  0  0  0  0  0  0
    6.9541   -1.2606   21.0330 N   0  0  0  0  0  0  0  0  0  0  0  0
    5.8857   -0.6951   19.0226 C   0  0  0  0  0  0  0  0  0  0  0  0
    6.8045   -0.8730   18.4577 H   0  0  0  0  0  0  0  0  0  0  0  0
    4.7999   -0.4527   18.3149 N   0  3  0  0  0  0  0  0  0  0  0  0
    4.6137   -1.2565   17.7500 H   0  0  0  0  0  0  0  0  0  0  0  0
    4.9466    0.3459   17.7311 H   0  0  0  0  0  0  0  0  0  0  0  0
    5.8828   -0.7631   20.3855 C   0  0  0  0  0  0  0  0  0  0  0  0
    5.0312   -0.4754   21.0265 H   0  0  0  0  0  0  0  0  0  0  0  0
    8.8287   -6.3211   26.8011 H   0  0  0  0  0  0  0  0  0  0  0  0
    9.3865   -4.5291   23.8309 H   0  0  0  0  0  0  0  0  0  0  0  0
    9.0373   -3.2592   25.0524 H   0  0  0  0  0  0  0  0  0  0  0  0
    9.8395   -1.7460   21.3685 H   0  0  0  0  0  0  0  0  0  0  0  0
    6.8168   -2.0678   21.6071 H   0  0  0  0  0  0  0  0  0  0  0  0
    4.0275   -0.2811   18.9264 H   0  0  0  0  0  0  0  0  0  0  0  0
 19 20  1  0  0  0  0
 19 21  1  0  0  0  0
 17 19  1  0  0  0  0
 17 18  1  0  0  0  0
 17 22  2  0  0  0  0
 22 23  1  0  0  0  0
 16 22  1  0  0  0  0
 14 15  2  0  0  0  0
 14 16  1  0  0  0  0
 13 14  1  0  0  0  0
 11 12  1  0  0  0  0
  7 13  1  0  0  0  0
  9 13  1  0  0  0  0
 10 11  1  0  0  0  0
  7  8  2  0  0  0  0
  9 10  1  0  0  0  0
  6  8  1  0  0  0  0
  5  6  1  0  0  0  0
  2  5  1  0  0  0  0
  2  3  1  0  0  0  0
  1  2  1  0  0  0  0
  2  4  1  0  0  0  0
  3 24  1  0  0  0  0
  6 25  1  0  0  0  0
  6 26  1  0  0  0  0
 13 27  1  0  0  0  0
 16 28  1  0  0  0  0
 19 29  1  0  0  0  0
M  CHG  1  19   1
M  END
> <Chemgauss4>
-6.557489

$$$$
