stable:False satoms:15 tatoms:24 sratio:0.625
  -OEChem-08062403583D

 29 28  0     1  0  0  0  0  0999 V2000
   -6.5147   -5.8157  -26.0043 F   0  0  0  0  0  0  0  0  0  0  0  0
   -7.7092   -5.2526  -25.7447 C   0  0  0  0  0  0  0  0  0  0  0  0
   -8.6137   -6.0797  -25.6781 O   0  0  0  0  0  0  0  0  0  0  0  0
   -7.9606   -4.3954  -26.7598 F   0  0  0  0  0  0  0  0  0  0  0  0
   -7.4711   -4.3713  -24.0952 S   0  0  0  0  0  0  0  0  0  0  0  0
   -8.7829   -3.5457  -24.0174 C   0  0  0  0  0  0  0  0  0  0  0  0
   -8.8584   -2.1628  -22.7030 N   0  0  0  0  0  0  0  0  0  0  0  0
   -9.5044   -2.7024  -23.6347 N   0  0  0  0  0  0  0  0  0  0  0  0
   -9.9914   -0.3712  -23.2270 O   0  0  0  0  0  0  0  0  0  0  0  0
  -11.3638   -0.4578  -23.3308 C   0  0  0  0  0  2  0  0  0  0  0  0
  -12.0235   -1.1722  -22.5265 O   0  0  0  0  0  0  0  0  0  0  0  0
  -11.2975   -1.6891  -22.0267 H   0  0  0  0  0  0  0  0  0  0  0  0
   -9.1176   -1.0302  -22.3484 C   0  0  3  0  0  0  0  0  0  0  0  0
   -8.2631   -0.4650  -21.1500 C   0  0  0  0  0  0  0  0  0  0  0  0
   -8.6891    0.4316  -20.4951 O   0  0  0  0  0  0  0  0  0  0  0  0
   -7.0782   -1.0891  -21.0112 N   0  0  0  0  0  0  0  0  0  0  0  0
   -6.2171   -0.4241  -18.9329 C   0  0  0  0  0  0  0  0  0  0  0  0
   -7.2121   -0.4649  -18.4819 H   0  0  0  0  0  0  0  0  0  0  0  0
   -5.2092   -0.2088  -18.1106 N   0  3  0  0  0  0  0  0  0  0  0  0
   -5.1751   -0.9665  -17.4588 H   0  0  0  0  0  0  0  0  0  0  0  0
   -5.3474    0.6529  -17.6225 H   0  0  0  0  0  0  0  0  0  0  0  0
   -6.0516   -0.6256  -20.2723 C   0  0  0  0  0  0  0  0  0  0  0  0
   -5.1027   -0.4776  -20.8168 H   0  0  0  0  0  0  0  0  0  0  0  0
   -8.7135   -6.5089  -26.5197 H   0  0  0  0  0  0  0  0  0  0  0  0
   -9.4558   -4.3921  -23.8155 H   0  0  0  0  0  0  0  0  0  0  0  0
   -8.8333   -3.2836  -25.0846 H   0  0  0  0  0  0  0  0  0  0  0  0
   -9.9333   -1.3518  -21.6842 H   0  0  0  0  0  0  0  0  0  0  0  0
   -6.9513   -1.9576  -21.4903 H   0  0  0  0  0  0  0  0  0  0  0  0
   -4.3535   -0.1662  -18.6265 H   0  0  0  0  0  0  0  0  0  0  0  0
 19 20  1  0  0  0  0
 19 21  1  0  0  0  0
 17 19  1  0  0  0  0
 17 18  1  0  0  0  0
 17 22  2  0  0  0  0
 22 23  1  0  0  0  0
 16 22  1  0  0  0  0
 14 15  2  0  0  0  0
 14 16  1  0  0  0  0
 13 14  1  0  0  0  0
 11 12  1  0  0  0  0
  7 13  1  0  0  0  0
  9 13  1  0  0  0  0
 10 11  1  0  0  0  0
  7  8  2  0  0  0  0
  9 10  1  0  0  0  0
  6  8  1  0  0  0  0
  5  6  1  0  0  0  0
  2  5  1  0  0  0  0
  2  3  1  0  0  0  0
  1  2  1  0  0  0  0
  2  4  1  0  0  0  0
  3 24  1  0  0  0  0
  6 25  1  0  0  0  0
  6 26  1  0  0  0  0
 13 27  1  0  0  0  0
 16 28  1  0  0  0  0
 19 29  1  0  0  0  0
M  CHG  1  19   1
M  END
> <Chemgauss4>
-6.511595

$$$$
