REMARK  3 active torsions:
REMARK  status: ('A' for Active; 'I' for Inactive)
REMARK    1  A    between atoms: S_2  and  C_11 
REMARK    2  A    between atoms: S_2  and  C_7 
REMARK    3  A    between atoms: C_7  and  N_8 
ROOT
HETATM    1  C   UNL     2       8.269  -5.480  21.194  1.00  0.00     0.083 C 
HETATM    2  O   UNL     2       8.393  -4.929  23.454  1.00  0.00    -0.277 OA
HETATM    3  C   UNL     2       7.891  -4.768  22.353  1.00  0.00     0.229 C 
HETATM    4  S   UNL     2       6.635  -3.666  22.079  1.00  0.00    -0.036 SA
ENDROOT
TORSDOF 3
