REMARK  3 active torsions:
REMARK  status: ('A' for Active; 'I' for Inactive)
REMARK    1  A    between atoms: C_4  and  C_9 
REMARK    2  A    between atoms: C_6  and  C_8 
REMARK    3  A    between atoms: C_6  and  C_9 
ROOT
HETATM    1 CL   UNL     1       5.434   1.323  23.928  1.00  0.00    -0.084 Cl
HETATM    2  C   UNL     1       7.111   0.846  24.011  1.00  0.00     0.036 A 
HETATM    3  C   UNL     1       7.556  -0.323  23.378  1.00  0.00     0.031 A 
HETATM    4  C   UNL     1       8.901  -0.702  23.464  1.00  0.00    -0.055 A 
HETATM    5  C   UNL     1       9.320   1.248  24.803  1.00  0.00     0.036 A 
HETATM    6  C   UNL     1       7.996   1.652  24.703  1.00  0.00     0.047 A 
HETATM    7  C   UNL     1       9.758   0.062  24.250  1.00  0.00     0.031 A 
HETATM    8 CL   UNL     1      10.425   2.202  25.689  1.00  0.00    -0.084 Cl
ENDROOT
BRANCH   4   9
HETATM    9  C   UNL     1       9.628  -1.791  22.682  1.00  0.00     0.038 C 
BRANCH   9  10
HETATM   10  C   UNL     1       9.036  -3.095  22.105  1.00  0.00     0.004 C 
BRANCH  10  11
HETATM   11  C   UNL     1       9.277  -3.275  20.600  1.00  0.00    -0.004 C 
HETATM   12  C   UNL     1       8.309  -2.422  19.773  1.00  0.00     0.005 C 
ENDBRANCH  10  11
ENDBRANCH   9  10
ENDBRANCH   4   9
TORSDOF 3
