MODEL 1
REMARK VINA RESULT:    -4.234      0.000      0.000
REMARK INTER + INTRA:          -5.326
REMARK INTER:                  -4.977
REMARK INTRA:                  -0.349
REMARK UNBOUND:                -0.349
REMARK  3 active torsions:
REMARK  status: ('A' for Active; 'I' for Inactive)
REMARK    1  A    between atoms: C_4  and  C_9 
REMARK    2  A    between atoms: C_6  and  C_8 
REMARK    3  A    between atoms: C_6  and  C_9 
ROOT
HETATM    1 CL   UNL     1       6.951  -3.661  24.018  1.00  0.00    -0.084 Cl
HETATM    2  C   UNL     1       8.018  -2.589  23.147  1.00  0.00     0.036 A 
HETATM    3  C   UNL     1       9.373  -2.489  23.493  1.00  0.00     0.031 A 
HETATM    4  C   UNL     1      10.215  -1.615  22.795  1.00  0.00    -0.055 A 
HETATM    5  C   UNL     1       8.344  -0.967  21.435  1.00  0.00     0.036 A 
HETATM    6  C   UNL     1       7.503  -1.849  22.098  1.00  0.00     0.047 A 
HETATM    7  C   UNL     1       9.661  -0.801  21.812  1.00  0.00     0.031 A 
HETATM    8 CL   UNL     1       7.723  -0.008  20.165  1.00  0.00    -0.084 Cl
ENDROOT
BRANCH   4   9
HETATM    9  C   UNL     1      11.736  -1.517  22.857  1.00  0.00     0.038 C 
BRANCH   9  10
HETATM   10  C   UNL     1      12.591  -0.727  23.872  1.00  0.00     0.004 C 
BRANCH  10  11
HETATM   11  C   UNL     1      11.786   0.259  24.730  1.00  0.00    -0.004 C 
HETATM   12  C   UNL     1      11.578   1.591  24.002  1.00  0.00     0.005 C 
ENDBRANCH  10  11
ENDBRANCH   9  10
ENDBRANCH   4   9
TORSDOF 3
ENDMDL
MODEL 2
REMARK VINA RESULT:    -4.185      2.421      5.235
REMARK INTER + INTRA:          -5.268
REMARK INTER:                  -4.945
REMARK INTRA:                  -0.323
REMARK UNBOUND:                -0.349
REMARK  3 active torsions:
REMARK  status: ('A' for Active; 'I' for Inactive)
REMARK    1  A    between atoms: C_4  and  C_9 
REMARK    2  A    between atoms: C_6  and  C_8 
REMARK    3  A    between atoms: C_6  and  C_9 
ROOT
HETATM    1 CL   UNL     1       7.466   0.433  20.017  1.00  0.00    -0.084 Cl
HETATM    2  C   UNL     1       8.033  -0.734  21.185  1.00  0.00     0.036 A 
HETATM    3  C   UNL     1       7.149  -1.651  21.770  1.00  0.00     0.031 A 
HETATM    4  C   UNL     1       7.614  -2.572  22.716  1.00  0.00    -0.055 A 
HETATM    5  C   UNL     1       9.817  -1.644  22.473  1.00  0.00     0.036 A 
HETATM    6  C   UNL     1       9.377  -0.744  21.513  1.00  0.00     0.047 A 
HETATM    7  C   UNL     1       8.946  -2.503  23.113  1.00  0.00     0.031 A 
HETATM    8 CL   UNL     1      11.463  -1.649  22.928  1.00  0.00    -0.084 Cl
ENDROOT
BRANCH   4   9
HETATM    9  C   UNL     1       6.886  -3.779  23.297  1.00  0.00     0.038 C 
BRANCH   9  10
HETATM   10  C   UNL     1       7.392  -5.235  23.389  1.00  0.00     0.004 C 
BRANCH  10  11
HETATM   11  C   UNL     1       7.311  -6.006  22.064  1.00  0.00    -0.004 C 
HETATM   12  C   UNL     1       6.013  -5.691  21.313  1.00  0.00     0.005 C 
ENDBRANCH  10  11
ENDBRANCH   9  10
ENDBRANCH   4   9
TORSDOF 3
ENDMDL
MODEL 3
REMARK VINA RESULT:    -4.139      3.474      5.248
REMARK INTER + INTRA:          -5.214
REMARK INTER:                  -5.047
REMARK INTRA:                  -0.166
REMARK UNBOUND:                -0.349
REMARK  3 active torsions:
REMARK  status: ('A' for Active; 'I' for Inactive)
REMARK    1  A    between atoms: C_4  and  C_9 
REMARK    2  A    between atoms: C_6  and  C_8 
REMARK    3  A    between atoms: C_6  and  C_9 
ROOT
HETATM    1 CL   UNL     1      13.435  -0.712  24.051  1.00  0.00    -0.084 Cl
HETATM    2  C   UNL     1      11.996   0.253  24.261  1.00  0.00     0.036 A 
HETATM    3  C   UNL     1      11.997   1.620  23.950  1.00  0.00     0.031 A 
HETATM    4  C   UNL     1      10.841   2.386  24.136  1.00  0.00    -0.055 A 
HETATM    5  C   UNL     1       9.718   0.418  24.935  1.00  0.00     0.036 A 
HETATM    6  C   UNL     1      10.848  -0.361  24.729  1.00  0.00     0.047 A 
HETATM    7  C   UNL     1       9.725   1.779  24.705  1.00  0.00     0.031 A 
HETATM    8 CL   UNL     1       8.300  -0.306  25.553  1.00  0.00    -0.084 Cl
ENDROOT
BRANCH   4   9
HETATM    9  C   UNL     1      10.562   3.809  23.662  1.00  0.00     0.038 C 
BRANCH   9  10
HETATM   10  C   UNL     1      11.499   5.033  23.748  1.00  0.00     0.004 C 
BRANCH  10  11
HETATM   11  C   UNL     1      10.812   6.306  24.263  1.00  0.00    -0.004 C 
HETATM   12  C   UNL     1       9.463   6.532  23.572  1.00  0.00     0.005 C 
ENDBRANCH  10  11
ENDBRANCH   9  10
ENDBRANCH   4   9
TORSDOF 3
ENDMDL
MODEL 4
REMARK VINA RESULT:    -4.119      3.355      5.085
REMARK INTER + INTRA:          -5.190
REMARK INTER:                  -5.078
REMARK INTRA:                  -0.112
REMARK UNBOUND:                -0.349
REMARK  3 active torsions:
REMARK  status: ('A' for Active; 'I' for Inactive)
REMARK    1  A    between atoms: C_4  and  C_9 
REMARK    2  A    between atoms: C_6  and  C_8 
REMARK    3  A    between atoms: C_6  and  C_9 
ROOT
HETATM    1 CL   UNL     1       8.813  -0.034  20.754  1.00  0.00    -0.084 Cl
HETATM    2  C   UNL     1       9.815   0.691  21.986  1.00  0.00     0.036 A 
HETATM    3  C   UNL     1       9.672   2.044  22.323  1.00  0.00     0.031 A 
HETATM    4  C   UNL     1      10.491   2.616  23.303  1.00  0.00    -0.055 A 
HETATM    5  C   UNL     1      11.569   0.488  23.583  1.00  0.00     0.036 A 
HETATM    6  C   UNL     1      10.745  -0.101  22.634  1.00  0.00     0.047 A 
HETATM    7  C   UNL     1      11.492   1.835  23.872  1.00  0.00     0.031 A 
HETATM    8 CL   UNL     1      12.756  -0.456  24.367  1.00  0.00    -0.084 Cl
ENDROOT
BRANCH   4   9
HETATM    9  C   UNL     1      10.357   3.982  23.968  1.00  0.00     0.038 C 
BRANCH   9  10
HETATM   10  C   UNL     1      11.346   5.166  23.904  1.00  0.00     0.004 C 
BRANCH  10  11
HETATM   11  C   UNL     1      10.941   6.362  24.776  1.00  0.00    -0.004 C 
HETATM   12  C   UNL     1      12.137   6.909  25.565  1.00  0.00     0.005 C 
ENDBRANCH  10  11
ENDBRANCH   9  10
ENDBRANCH   4   9
TORSDOF 3
ENDMDL
MODEL 5
REMARK VINA RESULT:    -4.112     12.851     14.686
REMARK INTER + INTRA:          -5.182
REMARK INTER:                  -4.883
REMARK INTRA:                  -0.299
REMARK UNBOUND:                -0.349
REMARK  3 active torsions:
REMARK  status: ('A' for Active; 'I' for Inactive)
REMARK    1  A    between atoms: C_4  and  C_9 
REMARK    2  A    between atoms: C_6  and  C_8 
REMARK    3  A    between atoms: C_6  and  C_9 
ROOT
HETATM    1 CL   UNL     1      24.805  -3.391  28.977  1.00  0.00    -0.084 Cl
HETATM    2  C   UNL     1      24.269  -3.804  27.369  1.00  0.00     0.036 A 
HETATM    3  C   UNL     1      23.748  -2.824  26.512  1.00  0.00     0.031 A 
HETATM    4  C   UNL     1      23.308  -3.172  25.230  1.00  0.00    -0.055 A 
HETATM    5  C   UNL     1      23.913  -5.451  25.686  1.00  0.00     0.036 A 
HETATM    6  C   UNL     1      24.380  -5.117  26.950  1.00  0.00     0.047 A 
HETATM    7  C   UNL     1      23.329  -4.513  24.860  1.00  0.00     0.031 A 
HETATM    8 CL   UNL     1      23.998  -7.074  25.160  1.00  0.00    -0.084 Cl
ENDROOT
BRANCH   4   9
HETATM    9  C   UNL     1      22.924  -2.247  24.079  1.00  0.00     0.038 C 
BRANCH   9  10
HETATM   10  C   UNL     1      21.567  -1.550  23.840  1.00  0.00     0.004 C 
BRANCH  10  11
HETATM   11  C   UNL     1      21.252  -0.438  24.850  1.00  0.00    -0.004 C 
HETATM   12  C   UNL     1      22.360   0.621  24.878  1.00  0.00     0.005 C 
ENDBRANCH  10  11
ENDBRANCH   9  10
ENDBRANCH   4   9
TORSDOF 3
ENDMDL
MODEL 6
REMARK VINA RESULT:    -4.088     13.410     14.760
REMARK INTER + INTRA:          -5.154
REMARK INTER:                  -4.889
REMARK INTRA:                  -0.265
REMARK UNBOUND:                -0.349
REMARK  3 active torsions:
REMARK  status: ('A' for Active; 'I' for Inactive)
REMARK    1  A    between atoms: C_4  and  C_9 
REMARK    2  A    between atoms: C_6  and  C_8 
REMARK    3  A    between atoms: C_6  and  C_9 
ROOT
HETATM    1 CL   UNL     1      24.362  -7.261  25.171  1.00  0.00    -0.084 Cl
HETATM    2  C   UNL     1      23.997  -5.642  25.712  1.00  0.00     0.036 A 
HETATM    3  C   UNL     1      23.208  -4.787  24.931  1.00  0.00     0.031 A 
HETATM    4  C   UNL     1      22.934  -3.486  25.370  1.00  0.00    -0.055 A 
HETATM    5  C   UNL     1      24.234  -3.923  27.342  1.00  0.00     0.036 A 
HETATM    6  C   UNL     1      24.491  -5.224  26.934  1.00  0.00     0.047 A 
HETATM    7  C   UNL     1      23.523  -3.044  26.550  1.00  0.00     0.031 A 
HETATM    8 CL   UNL     1      24.869  -3.366  28.826  1.00  0.00    -0.084 Cl
ENDROOT
BRANCH   4   9
HETATM    9  C   UNL     1      21.935  -2.486  24.797  1.00  0.00     0.038 C 
BRANCH   9  10
HETATM   10  C   UNL     1      22.149  -1.500  23.628  1.00  0.00     0.004 C 
BRANCH  10  11
HETATM   11  C   UNL     1      22.859  -0.201  24.032  1.00  0.00    -0.004 C 
HETATM   12  C   UNL     1      22.032   0.595  25.047  1.00  0.00     0.005 C 
ENDBRANCH  10  11
ENDBRANCH   9  10
ENDBRANCH   4   9
TORSDOF 3
ENDMDL
MODEL 7
REMARK VINA RESULT:    -4.022      3.275      4.792
REMARK INTER + INTRA:          -5.077
REMARK INTER:                  -4.897
REMARK INTRA:                  -0.179
REMARK UNBOUND:                -0.349
REMARK  3 active torsions:
REMARK  status: ('A' for Active; 'I' for Inactive)
REMARK    1  A    between atoms: C_4  and  C_9 
REMARK    2  A    between atoms: C_6  and  C_8 
REMARK    3  A    between atoms: C_6  and  C_9 
ROOT
HETATM    1 CL   UNL     1      12.878  -0.272  24.254  1.00  0.00    -0.084 Cl
HETATM    2  C   UNL     1      11.537   0.662  23.641  1.00  0.00     0.036 A 
HETATM    3  C   UNL     1      11.199   1.895  24.216  1.00  0.00     0.031 A 
HETATM    4  C   UNL     1      10.112   2.628  23.724  1.00  0.00    -0.055 A 
HETATM    5  C   UNL     1       9.729   0.892  22.109  1.00  0.00     0.036 A 
HETATM    6  C   UNL     1      10.821   0.167  22.566  1.00  0.00     0.047 A 
HETATM    7  C   UNL     1       9.338   2.069  22.712  1.00  0.00     0.031 A 
HETATM    8 CL   UNL     1       8.801   0.282  20.811  1.00  0.00    -0.084 Cl
ENDROOT
BRANCH   4   9
HETATM    9  C   UNL     1       9.716   4.064  24.048  1.00  0.00     0.038 C 
BRANCH   9  10
HETATM   10  C   UNL     1      10.451   5.361  23.644  1.00  0.00     0.004 C 
BRANCH  10  11
HETATM   11  C   UNL     1      11.900   5.437  24.144  1.00  0.00    -0.004 C 
HETATM   12  C   UNL     1      12.078   6.558  25.174  1.00  0.00     0.005 C 
ENDBRANCH  10  11
ENDBRANCH   9  10
ENDBRANCH   4   9
TORSDOF 3
ENDMDL
MODEL 8
REMARK VINA RESULT:    -3.950     26.297     27.901
REMARK INTER + INTRA:          -4.991
REMARK INTER:                  -4.805
REMARK INTRA:                  -0.186
REMARK UNBOUND:                -0.349
REMARK  3 active torsions:
REMARK  status: ('A' for Active; 'I' for Inactive)
REMARK    1  A    between atoms: C_4  and  C_9 
REMARK    2  A    between atoms: C_6  and  C_8 
REMARK    3  A    between atoms: C_6  and  C_9 
ROOT
HETATM    1 CL   UNL     1       2.252 -27.057   6.582  1.00  0.00    -0.084 Cl
HETATM    2  C   UNL     1       2.615 -26.114   8.006  1.00  0.00     0.036 A 
HETATM    3  C   UNL     1       2.399 -24.729   8.023  1.00  0.00     0.031 A 
HETATM    4  C   UNL     1       2.707 -23.983   9.166  1.00  0.00    -0.055 A 
HETATM    5  C   UNL     1       3.436 -26.005  10.238  1.00  0.00     0.036 A 
HETATM    6  C   UNL     1       3.108 -26.763   9.123  1.00  0.00     0.047 A 
HETATM    7  C   UNL     1       3.300 -24.632  10.245  1.00  0.00     0.031 A 
HETATM    8 CL   UNL     1       4.088 -26.775  11.616  1.00  0.00    -0.084 Cl
ENDROOT
BRANCH   4   9
HETATM    9  C   UNL     1       2.349 -22.532   9.473  1.00  0.00     0.038 C 
BRANCH   9  10
HETATM   10  C   UNL     1       2.025 -21.406   8.467  1.00  0.00     0.004 C 
BRANCH  10  11
HETATM   11  C   UNL     1       3.243 -20.563   8.064  1.00  0.00    -0.004 C 
HETATM   12  C   UNL     1       3.651 -19.599   9.183  1.00  0.00     0.005 C 
ENDBRANCH  10  11
ENDBRANCH   9  10
ENDBRANCH   4   9
TORSDOF 3
ENDMDL
MODEL 9
REMARK VINA RESULT:    -3.923      2.321      3.303
REMARK INTER + INTRA:          -4.960
REMARK INTER:                  -4.737
REMARK INTRA:                  -0.223
REMARK UNBOUND:                -0.349
REMARK  3 active torsions:
REMARK  status: ('A' for Active; 'I' for Inactive)
REMARK    1  A    between atoms: C_4  and  C_9 
REMARK    2  A    between atoms: C_6  and  C_8 
REMARK    3  A    between atoms: C_6  and  C_9 
ROOT
HETATM    1 CL   UNL     1       7.456  -5.242  26.940  1.00  0.00    -0.084 Cl
HETATM    2  C   UNL     1       7.684  -4.585  25.338  1.00  0.00     0.036 A 
HETATM    3  C   UNL     1       8.483  -3.452  25.135  1.00  0.00     0.031 A 
HETATM    4  C   UNL     1       8.646  -2.927  23.847  1.00  0.00    -0.055 A 
HETATM    5  C   UNL     1       7.218  -4.666  23.005  1.00  0.00     0.036 A 
HETATM    6  C   UNL     1       7.070  -5.215  24.271  1.00  0.00     0.047 A 
HETATM    7  C   UNL     1       7.939  -3.507  22.798  1.00  0.00     0.031 A 
HETATM    8 CL   UNL     1       6.435  -5.397  21.675  1.00  0.00    -0.084 Cl
ENDROOT
BRANCH   4   9
HETATM    9  C   UNL     1       9.629  -1.859  23.379  1.00  0.00     0.038 C 
BRANCH   9  10
HETATM   10  C   UNL     1      10.274  -0.736  24.219  1.00  0.00     0.004 C 
BRANCH  10  11
HETATM   11  C   UNL     1      11.804  -0.675  24.107  1.00  0.00    -0.004 C 
HETATM   12  C   UNL     1      12.316  -1.565  22.969  1.00  0.00     0.005 C 
ENDBRANCH  10  11
ENDBRANCH   9  10
ENDBRANCH   4   9
TORSDOF 3
ENDMDL
