MODEL 1
REMARK VINA RESULT:    -9.638      0.000      0.000
REMARK INTER + INTRA:         -15.813
REMARK INTER:                 -14.990
REMARK INTRA:                  -0.822
REMARK UNBOUND:                -0.822
REMARK  12 active torsions:
REMARK  status: ('A' for Active; 'I' for Inactive)
REMARK    1  A    between atoms: P_1  and  O5'_31 
REMARK    2  A    between atoms: C2_4  and  O2_5 
REMARK    3  A    between atoms: C4_8  and  O4_9 
REMARK    4  A    between atoms: C1'_17  and  N10_19 
REMARK    5  A    between atoms: C1'_17  and  C2'_21 
REMARK    6  A    between atoms: C2'_21  and  O2'_22 
REMARK    7  A    between atoms: C2'_21  and  C3'_24 
REMARK    8  A    between atoms: C3'_24  and  O3'_25 
REMARK    9  A    between atoms: C3'_24  and  C4'_27 
REMARK   10  A    between atoms: C4'_27  and  O4'_28 
REMARK   11  A    between atoms: C4'_27  and  C5'_30 
REMARK   12  A    between atoms: C5'_30  and  O5'_31 
ROOT
HETATM    1  N1  FMN A 150       0.590  40.091  22.506  1.00 12.36    -0.306 N 
ATOM      2  H1  FMN A 150      -0.208  40.104  21.872  1.00  0.00     0.171 HD
HETATM    3  C2  FMN A 150       1.741  40.779  22.196  1.00 11.89     0.224 A 
HETATM    4  N3  FMN A 150       2.810  40.838  23.051  1.00 18.84    -0.301 N 
HETATM    5  C4  FMN A 150       2.800  40.114  24.273  1.00 17.97     0.174 A 
HETATM    6  N5  FMN A 150       1.611  38.637  25.790  1.00 16.85    -0.348 N 
ATOM      7  H5  FMN A 150       2.469  38.493  26.322  1.00  0.00     0.166 HD
HETATM    8  C6  FMN A 150       0.275  37.527  27.555  1.00 16.39     0.039 A 
HETATM    9  C7  FMN A 150      -0.959  37.012  28.007  1.00 19.84    -0.054 A 
HETATM   10  C8  FMN A 150      -2.057  37.056  27.136  1.00 18.24    -0.054 A 
HETATM   11  C9  FMN A 150      -1.941  37.621  25.823  1.00 15.61     0.039 A 
HETATM   12  C10 FMN A 150       0.534  39.374  23.708  1.00 12.51     0.142 A 
HETATM   13  N10 FMN A 150      -0.641  38.683  24.026  1.00 18.06    -0.327 N 
HETATM   14  C4A FMN A 150       1.629  39.372  24.603  1.00 19.47     0.129 A 
HETATM   15  C5A FMN A 150       0.378  38.094  26.246  1.00 18.25     0.060 A 
HETATM   16  C7M FMN A 150      -1.172  36.417  29.317  1.00 15.19     0.049 C 
HETATM   17  C8M FMN A 150      -3.349  36.563  27.502  1.00 14.11     0.049 C 
HETATM   18  C9A FMN A 150      -0.719  38.161  25.354  1.00 18.29     0.063 A 
HETATM   19  H3  FMN A 150       3.604  41.397  22.813  1.00 20.00     0.171 HD
ENDROOT
BRANCH  13  20
HETATM   20  C1' FMN A 150      -1.722  38.746  23.115  1.00 12.62     0.165 C 
BRANCH  20  21
HETATM   21  C2' FMN A 150      -1.799  37.513  22.211  1.00  9.97     0.167 C 
BRANCH  21  22
HETATM   22  O2' FMN A 150      -0.650  37.397  21.376  1.00 15.37    -0.391 OA
HETATM   23  H2' FMN A 150       0.135  37.426  21.911  1.00 20.00     0.210 HD
ENDBRANCH  21  22
BRANCH  21  24
HETATM   24  C3' FMN A 150      -2.997  37.728  21.266  1.00 11.36     0.179 C 
BRANCH  24  25
HETATM   25  O3' FMN A 150      -4.105  38.028  22.136  1.00 13.62    -0.390 OA
HETATM   26  H3' FMN A 150      -3.947  37.648  22.992  1.00 20.00     0.210 HD
ENDBRANCH  24  25
BRANCH  24  27
HETATM   27  C4' FMN A 150      -3.314  36.608  20.334  1.00 11.25     0.173 C 
BRANCH  27  28
HETATM   28  O4' FMN A 150      -4.663  36.882  19.792  1.00 16.71    -0.391 OA
HETATM   29  H4' FMN A 150      -5.251  37.102  20.504  1.00 20.00     0.210 HD
ENDBRANCH  27  28
BRANCH  27  30
HETATM   30  C5' FMN A 150      -3.324  35.318  20.939  1.00  9.35     0.217 C 
BRANCH  30  31
HETATM   31  O5' FMN A 150      -2.799  34.392  20.034  1.00 12.14    -0.280 OA
BRANCH  31  32
HETATM   32  P   FMN A 150      -3.148  32.786  19.906  1.00 11.76     0.422 P 
HETATM   33  O1P FMN A 150      -4.768  32.419  19.929  1.00 12.93    -0.617 OA
HETATM   34  O2P FMN A 150      -2.446  31.923  21.173  1.00 14.25    -0.617 OA
HETATM   35  O3P FMN A 150      -2.483  32.212  18.502  1.00 11.71    -0.617 OA
ENDBRANCH  31  32
ENDBRANCH  30  31
ENDBRANCH  27  30
ENDBRANCH  24  27
ENDBRANCH  21  24
ENDBRANCH  20  21
ENDBRANCH  13  20
BRANCH   3  36
HETATM   36  O2  FMN A 150       1.768  41.467  21.039  1.00 17.40    -0.332 OA
ATOM     37  H2  FMN A 150       1.170  42.199  20.946  1.00  0.00     0.221 HD
ENDBRANCH   3  36
BRANCH   5  38
HETATM   38  O4  FMN A 150       3.910  40.119  25.109  1.00 18.76    -0.344 OA
ATOM     39  H4  FMN A 150       4.392  40.922  25.269  1.00  0.00     0.219 HD
ENDBRANCH   5  38
TORSDOF 12
ENDMDL
MODEL 2
REMARK VINA RESULT:    -8.080      1.904      2.952
REMARK INTER + INTRA:         -13.390
REMARK INTER:                 -12.262
REMARK INTRA:                  -1.129
REMARK UNBOUND:                -0.822
REMARK  12 active torsions:
REMARK  status: ('A' for Active; 'I' for Inactive)
REMARK    1  A    between atoms: P_1  and  O5'_31 
REMARK    2  A    between atoms: C2_4  and  O2_5 
REMARK    3  A    between atoms: C4_8  and  O4_9 
REMARK    4  A    between atoms: C1'_17  and  N10_19 
REMARK    5  A    between atoms: C1'_17  and  C2'_21 
REMARK    6  A    between atoms: C2'_21  and  O2'_22 
REMARK    7  A    between atoms: C2'_21  and  C3'_24 
REMARK    8  A    between atoms: C3'_24  and  O3'_25 
REMARK    9  A    between atoms: C3'_24  and  C4'_27 
REMARK   10  A    between atoms: C4'_27  and  O4'_28 
REMARK   11  A    between atoms: C4'_27  and  C5'_30 
REMARK   12  A    between atoms: C5'_30  and  O5'_31 
ROOT
HETATM    1  N1  FMN A 150       0.272  38.806  24.324  1.00 12.36    -0.306 N 
ATOM      2  H1  FMN A 150       0.179  39.110  23.355  1.00  0.00     0.171 HD
HETATM    3  C2  FMN A 150       1.457  38.981  25.001  1.00 11.89     0.224 A 
HETATM    4  N3  FMN A 150       1.601  38.645  26.321  1.00 18.84    -0.301 N 
HETATM    5  C4  FMN A 150       0.540  38.019  27.028  1.00 17.97     0.174 A 
HETATM    6  N5  FMN A 150      -1.734  37.170  27.014  1.00 16.85    -0.348 N 
ATOM      7  H5  FMN A 150      -1.572  36.719  27.914  1.00  0.00     0.166 HD
HETATM    8  C6  FMN A 150      -4.165  36.723  27.177  1.00 16.39     0.039 A 
HETATM    9  C7  FMN A 150      -5.449  36.743  26.594  1.00 19.84    -0.054 A 
HETATM   10  C8  FMN A 150      -5.570  37.185  25.268  1.00 18.24    -0.054 A 
HETATM   11  C9  FMN A 150      -4.425  37.620  24.523  1.00 15.61     0.039 A 
HETATM   12  C10 FMN A 150      -0.804  38.204  24.989  1.00 12.51     0.142 A 
HETATM   13  N10 FMN A 150      -2.012  38.036  24.302  1.00 18.06    -0.327 N 
HETATM   14  C4A FMN A 150      -0.688  37.803  26.340  1.00 19.47     0.129 A 
HETATM   15  C5A FMN A 150      -3.029  37.165  26.427  1.00 18.25     0.060 A 
HETATM   16  C7M FMN A 150      -6.666  36.318  27.268  1.00 15.19     0.049 C 
HETATM   17  C8M FMN A 150      -6.828  37.246  24.590  1.00 14.11     0.049 C 
HETATM   18  C9A FMN A 150      -3.129  37.626  25.093  1.00 18.29     0.063 A 
HETATM   19  H3  FMN A 150       2.461  38.842  26.792  1.00 20.00     0.171 HD
ENDROOT
BRANCH  13  20
HETATM   20  C1' FMN A 150      -2.088  38.487  22.963  1.00 12.62     0.165 C 
BRANCH  20  21
HETATM   21  C2' FMN A 150      -1.872  37.360  21.951  1.00  9.97     0.167 C 
BRANCH  21  22
HETATM   22  O2' FMN A 150      -0.579  37.424  21.355  1.00 15.37    -0.391 OA
HETATM   23  H2' FMN A 150      -0.548  38.148  20.741  1.00 20.00     0.210 HD
ENDBRANCH  21  22
BRANCH  21  24
HETATM   24  C3' FMN A 150      -2.883  37.585  20.810  1.00 11.36     0.179 C 
BRANCH  24  25
HETATM   25  O3' FMN A 150      -3.687  38.698  21.242  1.00 13.62    -0.390 OA
HETATM   26  H3' FMN A 150      -4.593  38.425  21.316  1.00 20.00     0.210 HD
ENDBRANCH  24  25
BRANCH  24  27
HETATM   27  C4' FMN A 150      -3.721  36.414  20.427  1.00 11.25     0.173 C 
BRANCH  27  28
HETATM   28  O4' FMN A 150      -5.055  36.638  21.026  1.00 16.71    -0.391 OA
HETATM   29  H4' FMN A 150      -4.972  37.211  21.779  1.00 20.00     0.210 HD
ENDBRANCH  27  28
BRANCH  27  30
HETATM   30  C5' FMN A 150      -3.229  35.157  20.884  1.00  9.35     0.217 C 
BRANCH  30  31
HETATM   31  O5' FMN A 150      -3.170  34.276  19.801  1.00 12.14    -0.280 OA
BRANCH  31  32
HETATM   32  P   FMN A 150      -3.220  32.628  19.828  1.00 11.76     0.422 P 
HETATM   33  O1P FMN A 150      -4.748  31.977  19.872  1.00 12.93    -0.617 OA
HETATM   34  O2P FMN A 150      -2.408  32.030  21.180  1.00 14.25    -0.617 OA
HETATM   35  O3P FMN A 150      -2.424  32.055  18.493  1.00 11.71    -0.617 OA
ENDBRANCH  31  32
ENDBRANCH  30  31
ENDBRANCH  27  30
ENDBRANCH  24  27
ENDBRANCH  21  24
ENDBRANCH  20  21
ENDBRANCH  13  20
BRANCH   3  36
HETATM   36  O2  FMN A 150       2.474  39.569  24.343  1.00 17.40    -0.332 OA
ATOM     37  H2  FMN A 150       3.161  39.972  24.860  1.00  0.00     0.221 HD
ENDBRANCH   3  36
BRANCH   5  38
HETATM   38  O4  FMN A 150       0.708  37.618  28.349  1.00 18.76    -0.344 OA
ATOM     39  H4  FMN A 150      -0.034  37.321  28.862  1.00  0.00     0.219 HD
ENDBRANCH   5  38
TORSDOF 12
ENDMDL
MODEL 3
REMARK VINA RESULT:    -7.447      4.685      6.676
REMARK INTER + INTRA:         -12.406
REMARK INTER:                 -11.117
REMARK INTRA:                  -1.289
REMARK UNBOUND:                -0.822
REMARK  12 active torsions:
REMARK  status: ('A' for Active; 'I' for Inactive)
REMARK    1  A    between atoms: P_1  and  O5'_31 
REMARK    2  A    between atoms: C2_4  and  O2_5 
REMARK    3  A    between atoms: C4_8  and  O4_9 
REMARK    4  A    between atoms: C1'_17  and  N10_19 
REMARK    5  A    between atoms: C1'_17  and  C2'_21 
REMARK    6  A    between atoms: C2'_21  and  O2'_22 
REMARK    7  A    between atoms: C2'_21  and  C3'_24 
REMARK    8  A    between atoms: C3'_24  and  O3'_25 
REMARK    9  A    between atoms: C3'_24  and  C4'_27 
REMARK   10  A    between atoms: C4'_27  and  O4'_28 
REMARK   11  A    between atoms: C4'_27  and  C5'_30 
REMARK   12  A    between atoms: C5'_30  and  O5'_31 
ROOT
HETATM    1  N1  FMN A 150       2.606  39.451  25.130  1.00 12.36    -0.306 N 
ATOM      2  H1  FMN A 150       2.812  38.967  26.004  1.00  0.00     0.171 HD
HETATM    3  C2  FMN A 150       3.561  40.234  24.524  1.00 11.89     0.224 A 
HETATM    4  N3  FMN A 150       3.345  40.849  23.319  1.00 18.84    -0.301 N 
HETATM    5  C4  FMN A 150       2.079  40.764  22.681  1.00 17.97     0.174 A 
HETATM    6  N5  FMN A 150      -0.192  39.904  22.701  1.00 16.85    -0.348 N 
ATOM      7  H5  FMN A 150      -0.435  40.527  21.931  1.00  0.00     0.166 HD
HETATM    8  C6  FMN A 150      -2.334  38.686  22.452  1.00 16.39     0.039 A 
HETATM    9  C7  FMN A 150      -3.244  37.715  22.919  1.00 19.84    -0.054 A 
HETATM   10  C8  FMN A 150      -2.941  37.037  24.109  1.00 18.24    -0.054 A 
HETATM   11  C9  FMN A 150      -1.732  37.307  24.830  1.00 15.61     0.039 A 
HETATM   12  C10 FMN A 150       1.348  39.331  24.527  1.00 12.51     0.142 A 
HETATM   13  N10 FMN A 150       0.381  38.525  25.141  1.00 18.06    -0.327 N 
HETATM   14  C4A FMN A 150       1.065  39.981  23.304  1.00 19.47     0.129 A 
HETATM   15  C5A FMN A 150      -1.127  38.944  23.176  1.00 18.25     0.060 A 
HETATM   16  C7M FMN A 150      -4.495  37.375  22.259  1.00 15.19     0.049 C 
HETATM   17  C8M FMN A 150      -3.798  36.034  24.661  1.00 14.11     0.049 C 
HETATM   18  C9A FMN A 150      -0.794  38.264  24.371  1.00 18.29     0.063 A 
HETATM   19  H3  FMN A 150       4.085  41.361  22.884  1.00 20.00     0.171 HD
ENDROOT
BRANCH  13  20
HETATM   20  C1' FMN A 150       0.725  37.867  26.345  1.00 12.62     0.165 C 
BRANCH  20  21
HETATM   21  C2' FMN A 150       0.201  38.597  27.584  1.00  9.97     0.167 C 
BRANCH  21  22
HETATM   22  O2' FMN A 150       0.981  39.751  27.887  1.00 15.37    -0.391 OA
HETATM   23  H2' FMN A 150       1.096  39.818  28.828  1.00 20.00     0.210 HD
ENDBRANCH  21  22
BRANCH  21  24
HETATM   24  C3' FMN A 150       0.373  37.636  28.775  1.00 11.36     0.179 C 
BRANCH  24  25
HETATM   25  O3' FMN A 150       1.750  37.218  28.716  1.00 13.62    -0.390 OA
HETATM   26  H3' FMN A 150       2.284  37.812  29.230  1.00 20.00     0.210 HD
ENDBRANCH  24  25
BRANCH  24  27
HETATM   27  C4' FMN A 150      -0.556  36.472  28.827  1.00 11.25     0.173 C 
BRANCH  27  28
HETATM   28  O4' FMN A 150      -1.927  37.026  28.783  1.00 16.71    -0.391 OA
HETATM   29  H4' FMN A 150      -2.496  36.425  28.318  1.00 20.00     0.210 HD
ENDBRANCH  27  28
BRANCH  27  30
HETATM   30  C5' FMN A 150      -0.434  35.666  29.996  1.00  9.35     0.217 C 
BRANCH  30  31
HETATM   31  O5' FMN A 150       0.042  34.405  29.626  1.00 12.14    -0.280 OA
BRANCH  31  32
HETATM   32  P   FMN A 150       1.557  33.790  29.833  1.00 11.76     0.422 P 
HETATM   33  O1P FMN A 150       1.671  32.142  29.652  1.00 12.93    -0.617 OA
HETATM   34  O2P FMN A 150       2.136  34.141  31.377  1.00 14.25    -0.617 OA
HETATM   35  O3P FMN A 150       2.576  34.525  28.754  1.00 11.71    -0.617 OA
ENDBRANCH  31  32
ENDBRANCH  30  31
ENDBRANCH  27  30
ENDBRANCH  24  27
ENDBRANCH  21  24
ENDBRANCH  20  21
ENDBRANCH  13  20
BRANCH   3  36
HETATM   36  O2  FMN A 150       4.766  40.329  25.118  1.00 17.40    -0.332 OA
ATOM     37  H2  FMN A 150       5.004  39.656  25.744  1.00  0.00     0.221 HD
ENDBRANCH   3  36
BRANCH   5  38
HETATM   38  O4  FMN A 150       1.837  41.442  21.491  1.00 18.76    -0.344 OA
ATOM     39  H4  FMN A 150       1.023  41.315  21.018  1.00  0.00     0.219 HD
ENDBRANCH   5  38
TORSDOF 12
ENDMDL
MODEL 4
REMARK VINA RESULT:    -6.921      3.646      5.501
REMARK INTER + INTRA:         -11.586
REMARK INTER:                  -9.600
REMARK INTRA:                  -1.986
REMARK UNBOUND:                -0.822
REMARK  12 active torsions:
REMARK  status: ('A' for Active; 'I' for Inactive)
REMARK    1  A    between atoms: P_1  and  O5'_31 
REMARK    2  A    between atoms: C2_4  and  O2_5 
REMARK    3  A    between atoms: C4_8  and  O4_9 
REMARK    4  A    between atoms: C1'_17  and  N10_19 
REMARK    5  A    between atoms: C1'_17  and  C2'_21 
REMARK    6  A    between atoms: C2'_21  and  O2'_22 
REMARK    7  A    between atoms: C2'_21  and  C3'_24 
REMARK    8  A    between atoms: C3'_24  and  O3'_25 
REMARK    9  A    between atoms: C3'_24  and  C4'_27 
REMARK   10  A    between atoms: C4'_27  and  O4'_28 
REMARK   11  A    between atoms: C4'_27  and  C5'_30 
REMARK   12  A    between atoms: C5'_30  and  O5'_31 
ROOT
HETATM    1  N1  FMN A 150      -4.464  37.756  21.918  1.00 12.36    -0.306 N 
ATOM      2  H1  FMN A 150      -5.422  38.029  22.137  1.00  0.00     0.171 HD
HETATM    3  C2  FMN A 150      -4.090  37.497  20.619  1.00 11.89     0.224 A 
HETATM    4  N3  FMN A 150      -2.799  37.190  20.278  1.00 18.84    -0.301 N 
HETATM    5  C4  FMN A 150      -1.801  37.047  21.278  1.00 17.97     0.174 A 
HETATM    6  N5  FMN A 150      -1.208  37.127  23.631  1.00 16.85    -0.348 N 
ATOM      7  H5  FMN A 150      -0.311  36.688  23.420  1.00  0.00     0.166 HD
HETATM    8  C6  FMN A 150      -0.463  37.645  25.936  1.00 16.39     0.039 A 
HETATM    9  C7  FMN A 150      -0.752  38.127  27.230  1.00 19.84    -0.054 A 
HETATM   10  C8  FMN A 150      -2.067  38.523  27.514  1.00 18.24    -0.054 A 
HETATM   11  C9  FMN A 150      -3.095  38.456  26.516  1.00 15.61     0.039 A 
HETATM   12  C10 FMN A 150      -3.507  37.639  22.934  1.00 12.51     0.142 A 
HETATM   13  N10 FMN A 150      -3.887  37.912  24.253  1.00 18.06    -0.327 N 
HETATM   14  C4A FMN A 150      -2.172  37.284  22.634  1.00 19.47     0.129 A 
HETATM   15  C5A FMN A 150      -1.494  37.589  24.945  1.00 18.25     0.060 A 
HETATM   16  C7M FMN A 150       0.221  38.227  28.307  1.00 15.19     0.049 C 
HETATM   17  C8M FMN A 150      -2.459  39.027  28.794  1.00 14.11     0.049 C 
HETATM   18  C9A FMN A 150      -2.825  37.994  25.205  1.00 18.29     0.063 A 
HETATM   19  H3  FMN A 150      -2.558  37.066  19.316  1.00 20.00     0.171 HD
ENDROOT
BRANCH  13  20
HETATM   20  C1' FMN A 150      -5.226  38.299  24.497  1.00 12.62     0.165 C 
BRANCH  20  21
HETATM   21  C2' FMN A 150      -6.083  37.145  25.022  1.00  9.97     0.167 C 
BRANCH  21  22
HETATM   22  O2' FMN A 150      -5.427  35.888  24.872  1.00 15.37    -0.391 OA
HETATM   23  H2' FMN A 150      -5.165  35.773  23.966  1.00 20.00     0.210 HD
ENDBRANCH  21  22
BRANCH  21  24
HETATM   24  C3' FMN A 150      -7.340  37.082  24.132  1.00 11.36     0.179 C 
BRANCH  24  25
HETATM   25  O3' FMN A 150      -8.429  37.438  25.005  1.00 13.62    -0.390 OA
HETATM   26  H3' FMN A 150      -8.095  37.590  25.881  1.00 20.00     0.210 HD
ENDBRANCH  24  25
BRANCH  24  27
HETATM   27  C4' FMN A 150      -7.593  35.791  23.433  1.00 11.25     0.173 C 
BRANCH  27  28
HETATM   28  O4' FMN A 150      -6.597  35.702  22.343  1.00 16.71    -0.391 OA
HETATM   29  H4' FMN A 150      -5.811  35.276  22.665  1.00 20.00     0.210 HD
ENDBRANCH  27  28
BRANCH  27  30
HETATM   30  C5' FMN A 150      -8.894  35.668  22.865  1.00  9.35     0.217 C 
BRANCH  30  31
HETATM   31  O5' FMN A 150      -9.338  36.936  22.479  1.00 12.14    -0.280 OA
BRANCH  31  32
HETATM   32  P   FMN A 150      -9.254  37.632  20.987  1.00 11.76     0.422 P 
HETATM   33  O1P FMN A 150      -7.723  38.053  20.500  1.00 12.93    -0.617 OA
HETATM   34  O2P FMN A 150     -10.176  39.043  20.936  1.00 14.25    -0.617 OA
HETATM   35  O3P FMN A 150      -9.907  36.586  19.881  1.00 11.71    -0.617 OA
ENDBRANCH  31  32
ENDBRANCH  30  31
ENDBRANCH  27  30
ENDBRANCH  24  27
ENDBRANCH  21  24
ENDBRANCH  20  21
ENDBRANCH  13  20
BRANCH   3  36
HETATM   36  O2  FMN A 150      -5.026  37.624  19.660  1.00 17.40    -0.332 OA
ATOM     37  H2  FMN A 150      -4.953  38.360  19.064  1.00  0.00     0.221 HD
ENDBRANCH   3  36
BRANCH   5  38
HETATM   38  O4  FMN A 150      -0.507  36.671  20.939  1.00 18.76    -0.344 OA
ATOM     39  H4  FMN A 150       0.214  37.282  21.028  1.00  0.00     0.219 HD
ENDBRANCH   5  38
TORSDOF 12
ENDMDL
MODEL 5
REMARK VINA RESULT:    -6.824      4.002      6.428
REMARK INTER + INTRA:         -11.435
REMARK INTER:                  -9.558
REMARK INTRA:                  -1.878
REMARK UNBOUND:                -0.822
REMARK  12 active torsions:
REMARK  status: ('A' for Active; 'I' for Inactive)
REMARK    1  A    between atoms: P_1  and  O5'_31 
REMARK    2  A    between atoms: C2_4  and  O2_5 
REMARK    3  A    between atoms: C4_8  and  O4_9 
REMARK    4  A    between atoms: C1'_17  and  N10_19 
REMARK    5  A    between atoms: C1'_17  and  C2'_21 
REMARK    6  A    between atoms: C2'_21  and  O2'_22 
REMARK    7  A    between atoms: C2'_21  and  C3'_24 
REMARK    8  A    between atoms: C3'_24  and  O3'_25 
REMARK    9  A    between atoms: C3'_24  and  C4'_27 
REMARK   10  A    between atoms: C4'_27  and  O4'_28 
REMARK   11  A    between atoms: C4'_27  and  C5'_30 
REMARK   12  A    between atoms: C5'_30  and  O5'_31 
ROOT
HETATM    1  N1  FMN A 150      -4.413  37.740  22.137  1.00 12.36    -0.306 N 
ATOM      2  H1  FMN A 150      -5.365  38.011  22.382  1.00  0.00     0.171 HD
HETATM    3  C2  FMN A 150      -4.083  37.450  20.833  1.00 11.89     0.224 A 
HETATM    4  N3  FMN A 150      -2.802  37.144  20.454  1.00 18.84    -0.301 N 
HETATM    5  C4  FMN A 150      -1.768  37.035  21.422  1.00 17.97     0.174 A 
HETATM    6  N5  FMN A 150      -1.093  37.180  23.749  1.00 16.85    -0.348 N 
ATOM      7  H5  FMN A 150      -0.201  36.743  23.518  1.00  0.00     0.166 HD
HETATM    8  C6  FMN A 150      -0.272  37.764  26.012  1.00 16.39     0.039 A 
HETATM    9  C7  FMN A 150      -0.519  38.277  27.303  1.00 19.84    -0.054 A 
HETATM   10  C8  FMN A 150      -1.827  38.670  27.623  1.00 18.24    -0.054 A 
HETATM   11  C9  FMN A 150      -2.888  38.570  26.664  1.00 15.61     0.039 A 
HETATM   12  C10 FMN A 150      -3.419  37.656  23.121  1.00 12.51     0.142 A 
HETATM   13  N10 FMN A 150      -3.755  37.961  24.445  1.00 18.06    -0.327 N 
HETATM   14  C4A FMN A 150      -2.093  37.304  22.783  1.00 19.47     0.129 A 
HETATM   15  C5A FMN A 150      -1.337  37.674  25.060  1.00 18.25     0.060 A 
HETATM   16  C7M FMN A 150       0.490  38.413  28.341  1.00 15.19     0.049 C 
HETATM   17  C8M FMN A 150      -2.177  39.205  28.902  1.00 14.11     0.049 C 
HETATM   18  C9A FMN A 150      -2.661  38.076  25.357  1.00 18.29     0.063 A 
HETATM   19  H3  FMN A 150      -2.594  36.997  19.487  1.00 20.00     0.171 HD
ENDROOT
BRANCH  13  20
HETATM   20  C1' FMN A 150      -5.088  38.344  24.726  1.00 12.62     0.165 C 
BRANCH  20  21
HETATM   21  C2' FMN A 150      -5.380  39.792  24.323  1.00  9.97     0.167 C 
BRANCH  21  22
HETATM   22  O2' FMN A 150      -5.525  40.639  25.461  1.00 15.37    -0.391 OA
HETATM   23  H2' FMN A 150      -6.356  40.460  25.885  1.00 20.00     0.210 HD
ENDBRANCH  21  22
BRANCH  21  24
HETATM   24  C3' FMN A 150      -6.747  39.790  23.611  1.00 11.36     0.179 C 
BRANCH  24  25
HETATM   25  O3' FMN A 150      -7.165  38.412  23.618  1.00 13.62    -0.390 OA
HETATM   26  H3' FMN A 150      -7.545  38.193  22.776  1.00 20.00     0.210 HD
ENDBRANCH  24  25
BRANCH  24  27
HETATM   27  C4' FMN A 150      -6.779  40.371  22.239  1.00 11.25     0.173 C 
BRANCH  27  28
HETATM   28  O4' FMN A 150      -7.079  39.254  21.317  1.00 16.71    -0.391 OA
HETATM   29  H4' FMN A 150      -7.617  39.570  20.601  1.00 20.00     0.210 HD
ENDBRANCH  27  28
BRANCH  27  30
HETATM   30  C5' FMN A 150      -5.561  40.982  21.825  1.00  9.35     0.217 C 
BRANCH  30  31
HETATM   31  O5' FMN A 150      -5.823  42.303  21.453  1.00 12.14    -0.280 OA
BRANCH  31  32
HETATM   32  P   FMN A 150      -6.279  43.559  22.419  1.00 11.76     0.422 P 
HETATM   33  O1P FMN A 150      -7.917  43.825  22.491  1.00 12.93    -0.617 OA
HETATM   34  O2P FMN A 150      -5.585  45.001  21.886  1.00 14.25    -0.617 OA
HETATM   35  O3P FMN A 150      -5.707  43.283  23.948  1.00 11.71    -0.617 OA
ENDBRANCH  31  32
ENDBRANCH  30  31
ENDBRANCH  27  30
ENDBRANCH  24  27
ENDBRANCH  21  24
ENDBRANCH  20  21
ENDBRANCH  13  20
BRANCH   3  36
HETATM   36  O2  FMN A 150      -5.053  37.545  19.904  1.00 17.40    -0.332 OA
ATOM     37  H2  FMN A 150      -5.910  37.841  20.187  1.00  0.00     0.221 HD
ENDBRANCH   3  36
BRANCH   5  38
HETATM   38  O4  FMN A 150      -0.484  36.659  21.047  1.00 18.76    -0.344 OA
ATOM     39  H4  FMN A 150       0.271  36.952  21.544  1.00  0.00     0.219 HD
ENDBRANCH   5  38
TORSDOF 12
ENDMDL
MODEL 6
REMARK VINA RESULT:    -6.823     17.187     19.728
REMARK INTER + INTRA:         -11.435
REMARK INTER:                  -9.066
REMARK INTRA:                  -2.369
REMARK UNBOUND:                -0.822
REMARK  12 active torsions:
REMARK  status: ('A' for Active; 'I' for Inactive)
REMARK    1  A    between atoms: P_1  and  O5'_31 
REMARK    2  A    between atoms: C2_4  and  O2_5 
REMARK    3  A    between atoms: C4_8  and  O4_9 
REMARK    4  A    between atoms: C1'_17  and  N10_19 
REMARK    5  A    between atoms: C1'_17  and  C2'_21 
REMARK    6  A    between atoms: C2'_21  and  O2'_22 
REMARK    7  A    between atoms: C2'_21  and  C3'_24 
REMARK    8  A    between atoms: C3'_24  and  O3'_25 
REMARK    9  A    between atoms: C3'_24  and  C4'_27 
REMARK   10  A    between atoms: C4'_27  and  O4'_28 
REMARK   11  A    between atoms: C4'_27  and  C5'_30 
REMARK   12  A    between atoms: C5'_30  and  O5'_31 
ROOT
HETATM    1  N1  FMN A 150      -0.558  43.167   4.331  1.00 12.36    -0.306 N 
ATOM      2  H1  FMN A 150      -1.474  43.083   3.890  1.00  0.00     0.171 HD
HETATM    3  C2  FMN A 150       0.589  42.927   3.609  1.00 11.89     0.224 A 
HETATM    4  N3  FMN A 150       1.838  43.091   4.148  1.00 18.84    -0.301 N 
HETATM    5  C4  FMN A 150       1.996  43.443   5.515  1.00 17.97     0.174 A 
HETATM    6  N5  FMN A 150       0.960  43.994   7.640  1.00 16.85    -0.348 N 
ATOM      7  H5  FMN A 150       1.863  43.903   8.104  1.00  0.00     0.166 HD
HETATM    8  C6  FMN A 150      -0.035  45.001   9.672  1.00 16.39     0.039 A 
HETATM    9  C7  FMN A 150      -1.167  45.477  10.366  1.00 19.84    -0.054 A 
HETATM   10  C8  FMN A 150      -2.420  45.380   9.742  1.00 18.24    -0.054 A 
HETATM   11  C9  FMN A 150      -2.553  44.825   8.427  1.00 15.61     0.039 A 
HETATM   12  C10 FMN A 150      -0.446  43.528   5.680  1.00 12.51     0.142 A 
HETATM   13  N10 FMN A 150      -1.613  43.781   6.409  1.00 18.06    -0.327 N 
HETATM   14  C4A FMN A 150       0.822  43.669   6.289  1.00 19.47     0.129 A 
HETATM   15  C5A FMN A 150      -0.178  44.455   8.357  1.00 18.25     0.060 A 
HETATM   16  C7M FMN A 150      -1.132  46.051  11.702  1.00 15.19     0.049 C 
HETATM   17  C8M FMN A 150      -3.625  45.837  10.362  1.00 14.11     0.049 C 
HETATM   18  C9A FMN A 150      -1.429  44.358   7.703  1.00 18.29     0.063 A 
HETATM   19  H3  FMN A 150       2.646  42.963   3.572  1.00 20.00     0.171 HD
ENDROOT
BRANCH  13  20
HETATM   20  C1' FMN A 150      -2.857  43.662   5.744  1.00 12.62     0.165 C 
BRANCH  20  21
HETATM   21  C2' FMN A 150      -3.183  44.888   4.887  1.00  9.97     0.167 C 
BRANCH  21  22
HETATM   22  O2' FMN A 150      -4.235  45.665   5.455  1.00 15.37    -0.391 OA
HETATM   23  H2' FMN A 150      -4.144  46.570   5.181  1.00 20.00     0.210 HD
ENDBRANCH  21  22
BRANCH  21  24
HETATM   24  C3' FMN A 150      -3.716  44.362   3.540  1.00 11.36     0.179 C 
BRANCH  24  25
HETATM   25  O3' FMN A 150      -3.667  42.927   3.658  1.00 13.62    -0.390 OA
HETATM   26  H3' FMN A 150      -3.095  42.688   4.377  1.00 20.00     0.210 HD
ENDBRANCH  24  25
BRANCH  24  27
HETATM   27  C4' FMN A 150      -3.011  44.840   2.317  1.00 11.25     0.173 C 
BRANCH  27  28
HETATM   28  O4' FMN A 150      -2.328  43.662   1.738  1.00 16.71    -0.391 OA
HETATM   29  H4' FMN A 150      -2.974  43.070   1.371  1.00 20.00     0.210 HD
ENDBRANCH  27  28
BRANCH  27  30
HETATM   30  C5' FMN A 150      -2.038  45.854   2.552  1.00  9.35     0.217 C 
BRANCH  30  31
HETATM   31  O5' FMN A 150      -0.794  45.396   2.109  1.00 12.14    -0.280 OA
BRANCH  31  32
HETATM   32  P   FMN A 150       0.652  46.187   2.145  1.00 11.76     0.422 P 
HETATM   33  O1P FMN A 150       0.718  47.561   1.214  1.00 12.93    -0.617 OA
HETATM   34  O2P FMN A 150       1.893  45.183   1.602  1.00 14.25    -0.617 OA
HETATM   35  O3P FMN A 150       0.999  46.580   3.716  1.00 11.71    -0.617 OA
ENDBRANCH  31  32
ENDBRANCH  30  31
ENDBRANCH  27  30
ENDBRANCH  24  27
ENDBRANCH  21  24
ENDBRANCH  20  21
ENDBRANCH  13  20
BRANCH   3  36
HETATM   36  O2  FMN A 150       0.456  42.589   2.313  1.00 17.40    -0.332 OA
ATOM     37  H2  FMN A 150      -0.099  41.847   2.104  1.00  0.00     0.221 HD
ENDBRANCH   3  36
BRANCH   5  38
HETATM   38  O4  FMN A 150       3.263  43.544   6.078  1.00 18.76    -0.344 OA
ATOM     39  H4  FMN A 150       3.427  43.232   6.960  1.00  0.00     0.219 HD
ENDBRANCH   5  38
TORSDOF 12
ENDMDL
MODEL 7
REMARK VINA RESULT:    -6.806      3.672      5.654
REMARK INTER + INTRA:         -11.408
REMARK INTER:                  -9.275
REMARK INTRA:                  -2.133
REMARK UNBOUND:                -0.822
REMARK  12 active torsions:
REMARK  status: ('A' for Active; 'I' for Inactive)
REMARK    1  A    between atoms: P_1  and  O5'_31 
REMARK    2  A    between atoms: C2_4  and  O2_5 
REMARK    3  A    between atoms: C4_8  and  O4_9 
REMARK    4  A    between atoms: C1'_17  and  N10_19 
REMARK    5  A    between atoms: C1'_17  and  C2'_21 
REMARK    6  A    between atoms: C2'_21  and  O2'_22 
REMARK    7  A    between atoms: C2'_21  and  C3'_24 
REMARK    8  A    between atoms: C3'_24  and  O3'_25 
REMARK    9  A    between atoms: C3'_24  and  C4'_27 
REMARK   10  A    between atoms: C4'_27  and  O4'_28 
REMARK   11  A    between atoms: C4'_27  and  C5'_30 
REMARK   12  A    between atoms: C5'_30  and  O5'_31 
ROOT
HETATM    1  N1  FMN A 150      -4.344  36.952  21.820  1.00 12.36    -0.306 N 
ATOM      2  H1  FMN A 150      -5.348  36.924  21.998  1.00  0.00     0.171 HD
HETATM    3  C2  FMN A 150      -3.862  36.961  20.531  1.00 11.89     0.224 A 
HETATM    4  N3  FMN A 150      -2.525  37.061  20.252  1.00 18.84    -0.301 N 
HETATM    5  C4  FMN A 150      -1.566  37.079  21.300  1.00 17.97     0.174 A 
HETATM    6  N5  FMN A 150      -1.111  37.038  23.684  1.00 16.85    -0.348 N 
ATOM      7  H5  FMN A 150      -0.120  36.889  23.492  1.00  0.00     0.166 HD
HETATM    8  C6  FMN A 150      -0.631  37.462  26.076  1.00 16.39     0.039 A 
HETATM    9  C7  FMN A 150      -1.093  37.689  27.390  1.00 19.84    -0.054 A 
HETATM   10  C8  FMN A 150      -2.477  37.674  27.620  1.00 18.24    -0.054 A 
HETATM   11  C9  FMN A 150      -3.405  37.448  26.551  1.00 15.61     0.039 A 
HETATM   12  C10 FMN A 150      -3.432  36.981  22.883  1.00 12.51     0.142 A 
HETATM   13  N10 FMN A 150      -3.925  36.981  24.193  1.00 18.06    -0.327 N 
HETATM   14  C4A FMN A 150      -2.041  37.042  22.643  1.00 19.47     0.129 A 
HETATM   15  C5A FMN A 150      -1.566  37.244  25.015  1.00 18.25     0.060 A 
HETATM   16  C7M FMN A 150      -0.230  37.923  28.537  1.00 15.19     0.049 C 
HETATM   17  C8M FMN A 150      -3.043  37.896  28.914  1.00 14.11     0.049 C 
HETATM   18  C9A FMN A 150      -2.966  37.236  25.221  1.00 18.29     0.063 A 
HETATM   19  H3  FMN A 150      -2.221  37.124  19.301  1.00 20.00     0.171 HD
ENDROOT
BRANCH  13  20
HETATM   20  C1' FMN A 150      -5.327  36.956  24.381  1.00 12.62     0.165 C 
BRANCH  20  21
HETATM   21  C2' FMN A 150      -5.864  35.538  24.593  1.00  9.97     0.167 C 
BRANCH  21  22
HETATM   22  O2' FMN A 150      -5.051  34.562  23.947  1.00 15.37    -0.391 OA
HETATM   23  H2' FMN A 150      -5.598  33.988  23.424  1.00 20.00     0.210 HD
ENDBRANCH  21  22
BRANCH  21  24
HETATM   24  C3' FMN A 150      -7.241  35.475  23.903  1.00 11.36     0.179 C 
BRANCH  24  25
HETATM   25  O3' FMN A 150      -6.956  35.606  22.497  1.00 13.62    -0.390 OA
HETATM   26  H3' FMN A 150      -7.599  35.118  21.997  1.00 20.00     0.210 HD
ENDBRANCH  24  25
BRANCH  24  27
HETATM   27  C4' FMN A 150      -8.255  36.469  24.356  1.00 11.25     0.173 C 
BRANCH  27  28
HETATM   28  O4' FMN A 150      -9.162  35.753  25.278  1.00 16.71    -0.391 OA
HETATM   29  H4' FMN A 150      -8.904  34.840  25.331  1.00 20.00     0.210 HD
ENDBRANCH  27  28
BRANCH  27  30
HETATM   30  C5' FMN A 150      -9.036  37.039  23.309  1.00  9.35     0.217 C 
BRANCH  30  31
HETATM   31  O5' FMN A 150      -8.589  38.342  23.073  1.00 12.14    -0.280 OA
BRANCH  31  32
HETATM   32  P   FMN A 150      -8.147  39.020  21.636  1.00 11.76     0.422 P 
HETATM   33  O1P FMN A 150      -9.412  39.482  20.664  1.00 12.93    -0.617 OA
HETATM   34  O2P FMN A 150      -7.218  37.942  20.731  1.00 14.25    -0.617 OA
HETATM   35  O3P FMN A 150      -7.193  40.338  21.947  1.00 11.71    -0.617 OA
ENDBRANCH  31  32
ENDBRANCH  30  31
ENDBRANCH  27  30
ENDBRANCH  24  27
ENDBRANCH  21  24
ENDBRANCH  20  21
ENDBRANCH  13  20
BRANCH   3  36
HETATM   36  O2  FMN A 150      -4.758  36.940  19.526  1.00 17.40    -0.332 OA
ATOM     37  H2  FMN A 150      -4.440  37.104  18.646  1.00  0.00     0.221 HD
ENDBRANCH   3  36
BRANCH   5  38
HETATM   38  O4  FMN A 150      -0.206  37.113  21.015  1.00 18.76    -0.344 OA
ATOM     39  H4  FMN A 150       0.433  36.880  21.678  1.00  0.00     0.219 HD
ENDBRANCH   5  38
TORSDOF 12
ENDMDL
MODEL 8
REMARK VINA RESULT:    -6.781     20.385     22.276
REMARK INTER + INTRA:         -11.370
REMARK INTER:                  -9.362
REMARK INTRA:                  -2.008
REMARK UNBOUND:                -0.822
REMARK  12 active torsions:
REMARK  status: ('A' for Active; 'I' for Inactive)
REMARK    1  A    between atoms: P_1  and  O5'_31 
REMARK    2  A    between atoms: C2_4  and  O2_5 
REMARK    3  A    between atoms: C4_8  and  O4_9 
REMARK    4  A    between atoms: C1'_17  and  N10_19 
REMARK    5  A    between atoms: C1'_17  and  C2'_21 
REMARK    6  A    between atoms: C2'_21  and  O2'_22 
REMARK    7  A    between atoms: C2'_21  and  C3'_24 
REMARK    8  A    between atoms: C3'_24  and  O3'_25 
REMARK    9  A    between atoms: C3'_24  and  C4'_27 
REMARK   10  A    between atoms: C4'_27  and  O4'_28 
REMARK   11  A    between atoms: C4'_27  and  C5'_30 
REMARK   12  A    between atoms: C5'_30  and  O5'_31 
ROOT
HETATM    1  N1  FMN A 150       9.986  19.430  17.592  1.00 12.36    -0.306 N 
ATOM      2  H1  FMN A 150      10.512  18.570  17.747  1.00  0.00     0.171 HD
HETATM    3  C2  FMN A 150      10.337  20.291  16.578  1.00 11.89     0.224 A 
HETATM    4  N3  FMN A 150       9.617  21.423  16.299  1.00 18.84    -0.301 N 
HETATM    5  C4  FMN A 150       8.513  21.796  17.110  1.00 17.97     0.174 A 
HETATM    6  N5  FMN A 150       7.077  21.297  19.003  1.00 16.85    -0.348 N 
ATOM      7  H5  FMN A 150       6.677  22.233  18.947  1.00  0.00     0.166 HD
HETATM    8  C6  FMN A 150       5.330  20.597  20.612  1.00 16.39     0.039 A 
HETATM    9  C7  FMN A 150       4.806  19.632  21.499  1.00 19.84    -0.054 A 
HETATM   10  C8  FMN A 150       5.524  18.442  21.687  1.00 18.24    -0.054 A 
HETATM   11  C9  FMN A 150       6.752  18.198  20.989  1.00 15.61     0.039 A 
HETATM   12  C10 FMN A 150       8.894  19.755  18.408  1.00 12.51     0.142 A 
HETATM   13  N10 FMN A 150       8.533  18.872  19.432  1.00 18.06    -0.327 N 
HETATM   14  C4A FMN A 150       8.147  20.933  18.183  1.00 19.47     0.129 A 
HETATM   15  C5A FMN A 150       6.553  20.341  19.916  1.00 18.25     0.060 A 
HETATM   16  C7M FMN A 150       3.572  19.791  22.253  1.00 15.19     0.049 C 
HETATM   17  C8M FMN A 150       5.075  17.403  22.561  1.00 14.11     0.049 C 
HETATM   18  C9A FMN A 150       7.288  19.143  20.080  1.00 18.29     0.063 A 
HETATM   19  H3  FMN A 150       9.872  21.991  15.517  1.00 20.00     0.171 HD
ENDROOT
BRANCH  13  20
HETATM   20  C1' FMN A 150       9.290  17.688  19.593  1.00 12.62     0.165 C 
BRANCH  20  21
HETATM   21  C2' FMN A 150      10.343  17.810  20.697  1.00  9.97     0.167 C 
BRANCH  21  22
HETATM   22  O2' FMN A 150      11.035  19.055  20.631  1.00 15.37    -0.391 OA
HETATM   23  H2' FMN A 150      10.637  19.605  19.966  1.00 20.00     0.210 HD
ENDBRANCH  21  22
BRANCH  21  24
HETATM   24  C3' FMN A 150      11.397  16.718  20.431  1.00 11.36     0.179 C 
BRANCH  24  25
HETATM   25  O3' FMN A 150      12.372  16.882  21.478  1.00 13.62    -0.390 OA
HETATM   26  H3' FMN A 150      11.927  16.997  22.309  1.00 20.00     0.210 HD
ENDBRANCH  24  25
BRANCH  24  27
HETATM   27  C4' FMN A 150      12.030  16.723  19.081  1.00 11.25     0.173 C 
BRANCH  27  28
HETATM   28  O4' FMN A 150      11.858  15.361  18.531  1.00 16.71    -0.391 OA
HETATM   29  H4' FMN A 150      11.012  15.297  18.104  1.00 20.00     0.210 HD
ENDBRANCH  27  28
BRANCH  27  30
HETATM   30  C5' FMN A 150      13.420  17.037  19.079  1.00  9.35     0.217 C 
BRANCH  30  31
HETATM   31  O5' FMN A 150      13.568  18.427  19.099  1.00 12.14    -0.280 OA
BRANCH  31  32
HETATM   32  P   FMN A 150      14.210  19.397  17.930  1.00 11.76     0.422 P 
HETATM   33  O1P FMN A 150      15.837  19.691  18.085  1.00 12.93    -0.617 OA
HETATM   34  O2P FMN A 150      13.451  20.903  17.925  1.00 14.25    -0.617 OA
HETATM   35  O3P FMN A 150      13.922  18.705  16.454  1.00 11.71    -0.617 OA
ENDBRANCH  31  32
ENDBRANCH  30  31
ENDBRANCH  27  30
ENDBRANCH  24  27
ENDBRANCH  21  24
ENDBRANCH  20  21
ENDBRANCH  13  20
BRANCH   3  36
HETATM   36  O2  FMN A 150      11.385  19.954  15.803  1.00 17.40    -0.332 OA
ATOM     37  H2  FMN A 150      11.526  20.453  15.008  1.00  0.00     0.221 HD
ENDBRANCH   3  36
BRANCH   5  38
HETATM   38  O4  FMN A 150       7.823  22.979  16.868  1.00 18.76    -0.344 OA
ATOM     39  H4  FMN A 150       8.054  23.777  17.329  1.00  0.00     0.219 HD
ENDBRANCH   5  38
TORSDOF 12
ENDMDL
