stable:False satoms:18 tatoms:24 sratio:0.75
  -OEChem-07092417303D

 24 25  0     1  0  0  0  0  0999 V2000
   11.4365   -1.0073   19.4756 O   0  0  0  0  0  0  0  0  0  0  0  0
    5.7685   -2.3503   24.5418 H   0  0  0  0  0  0  0  0  0  0  0  0
    6.8836   -1.4439   26.5860 N   0  0  0  0  0  0  0  0  0  0  0  0
    9.8077   -0.9412   21.0801 O   0  0  0  0  0  0  0  0  0  0  0  0
   11.7323    1.0206   19.6658 H   0  0  0  0  0  0  0  0  0  0  0  0
    6.6338   -1.8522   24.3912 N   0  3  0  0  0  0  0  0  0  0  0  0
    7.1690   -2.3382   19.1405 H   0  0  0  0  0  0  0  0  0  0  0  0
    8.1476   -1.1810   22.9777 C   0  0  0  0  0  0  0  0  0  0  0  0
    8.0432   -2.0972   19.5700 N   0  0  0  0  0  0  0  0  0  0  0  0
   12.1417    0.0834   20.0507 C   0  0  0  0  0  0  0  0  0  0  0  0
    7.3665   -1.2761   25.3224 C   0  0  0  0  0  0  0  0  0  0  0  0
    6.1983   -2.1709   26.7874 H   0  0  0  0  0  0  0  0  0  0  0  0
   13.1711   -0.0204   19.7315 H   0  0  0  0  0  0  0  0  0  0  0  0
   12.0752    0.0905   21.1390 H   0  0  0  0  0  0  0  0  0  0  0  0
    8.8056   -0.5343   24.4818 S   0  0  0  0  0  0  0  0  0  0  0  0
    8.6567   -1.3693   21.6131 C   0  0  3  0  0  0  0  0  0  0  0  0
    7.1046   -0.5729   27.6541 C   0  0  0  0  0  0  0  0  0  0  0  0
    6.9886   -1.7116   23.1438 N   0  0  0  0  0  0  0  0  0  0  0  0
    7.8560   -2.0910   20.9582 O   0  0  0  0  0  0  0  0  0  0  0  0
    6.4553   -0.7325   28.6565 O   0  0  0  0  0  0  0  0  0  0  0  0
    9.4038   -2.2063   18.0467 H   0  0  0  0  0  0  0  0  0  0  0  0
    8.3165    0.5777   27.3952 S   0  0  0  0  0  0  0  0  0  0  0  0
   10.2052   -1.2603   19.8292 C   0  0  0  0  0  0  0  0  0  0  0  0
    9.2169   -1.9054   19.0587 C   0  0  0  0  0  0  0  0  0  0  0  0
 21 24  1  0  0  0  0
  9 24  1  0  0  0  0
 23 24  2  0  0  0  0
  7  9  1  0  0  0  0
  1 23  1  0  0  0  0
  1 10  1  0  0  0  0
  9 19  1  0  0  0  0
  5 10  1  0  0  0  0
 10 13  1  0  0  0  0
  4 23  1  0  0  0  0
 10 14  1  0  0  0  0
 16 19  1  0  0  0  0
  4 16  1  0  0  0  0
  8 16  1  0  0  0  0
  8 18  2  0  0  0  0
  8 15  1  0  0  0  0
  6 18  1  0  0  0  0
  2  6  1  0  0  0  0
  6 11  2  0  0  0  0
 11 15  1  0  0  0  0
  3 11  1  0  0  0  0
  3 12  1  0  0  0  0
  3 17  1  0  0  0  0
 17 22  1  0  0  0  0
 17 20  2  0  0  0  0
M  CHG  1   6   1
M  END
> <Shapegauss>
-90.195457

$$$$
