stable:False satoms:18 tatoms:24 sratio:0.75
  -OEChem-08052415463D

 24 25  0     1  0  0  0  0  0999 V2000
  -10.8333    1.1130  -23.6384 O   0  0  0  0  0  0  0  0  0  0  0  0
   -7.7310   -6.0197  -26.9515 N   0  0  0  0  0  0  0  0  0  0  0  0
   -9.8250   -0.9029  -24.0273 O   0  0  0  0  0  0  0  0  0  0  0  0
   -9.0068    2.0597  -23.7006 H   0  0  0  0  0  0  0  0  0  0  0  0
   -8.7457   -5.3320  -25.0691 N   0  0  0  0  0  0  0  0  0  0  0  0
  -11.0257   -2.6031  -21.1388 H   0  0  0  0  0  0  0  0  0  0  0  0
   -8.9918   -3.2045  -24.6774 C   0  0  0  0  0  0  0  0  0  0  0  0
  -10.8984   -2.0264  -21.9499 N   0  0  0  0  0  0  0  0  0  0  0  0
   -9.8421    1.8252  -24.3650 C   0  0  0  0  0  0  0  0  0  0  0  0
   -8.1143   -4.9722  -26.1681 C   0  0  0  0  0  0  0  0  0  0  0  0
   -8.1459   -6.9419  -26.8244 H   0  0  0  0  0  0  0  0  0  0  0  0
  -10.3111    2.7436  -24.6952 H   0  0  0  0  0  0  0  0  0  0  0  0
   -9.4663    1.2573  -25.2166 H   0  0  0  0  0  0  0  0  0  0  0  0
   -8.0914   -3.1483  -26.1939 S   0  0  0  0  0  0  0  0  0  0  0  0
   -9.7383   -2.2297  -23.8717 C   0  0  3  0  0  0  0  0  0  0  0  0
   -6.6525   -6.0095  -27.8375 C   0  0  0  0  0  0  0  0  0  0  0  0
   -9.1147   -4.4034  -24.2304 N   0  0  0  0  0  0  0  0  0  0  0  0
  -10.3947   -2.8323  -22.9790 O   0  0  0  0  0  0  0  0  0  0  0  0
   -6.3023   -7.0598  -28.3129 O   0  0  0  0  0  0  0  0  0  0  0  0
  -11.8488   -0.2766  -21.4823 H   0  0  0  0  0  0  0  0  0  0  0  0
   -6.0101   -4.4786  -28.1591 S   0  5  0  0  0  0  0  0  0  0  0  0
  -10.6242   -0.1217  -23.2686 C   0  0  0  0  0  0  0  0  0  0  0  0
  -11.1989   -0.7860  -22.1663 C   0  0  0  0  0  0  0  0  0  0  0  0
   -8.8825   -2.1123  -23.1905 H   0  0  0  0  0  0  0  0  0  0  0  0
 20 23  1  0  0  0  0
  8 23  1  0  0  0  0
 22 23  2  0  0  0  0
  6  8  1  0  0  0  0
  1 22  1  0  0  0  0
  1  9  1  0  0  0  0
  8 18  1  0  0  0  0
  4  9  1  0  0  0  0
  9 12  1  0  0  0  0
  3 22  1  0  0  0  0
  9 13  1  0  0  0  0
 15 18  1  0  0  0  0
  3 15  1  0  0  0  0
  7 15  1  0  0  0  0
  7 17  2  0  0  0  0
  7 14  1  0  0  0  0
  5 17  1  0  0  0  0
  5 10  2  0  0  0  0
 10 14  1  0  0  0  0
  2 10  1  0  0  0  0
  2 11  1  0  0  0  0
  2 16  1  0  0  0  0
 16 21  1  0  0  0  0
 16 19  2  0  0  0  0
 15 24  1  0  0  0  0
M  CHG  1  21  -1
M  END
> <Chemgauss4>
-6.363673

$$$$
