stable:False satoms:18 tatoms:24 sratio:0.75
  -OEChem-08052415463D

 24 25  0     1  0  0  0  0  0999 V2000
   10.8131    0.9720   23.8604 O   0  0  0  0  0  0  0  0  0  0  0  0
    7.7108   -6.1607   27.1736 N   0  0  0  0  0  0  0  0  0  0  0  0
    9.8048   -1.0439   24.2493 O   0  0  0  0  0  0  0  0  0  0  0  0
    8.9866    1.9187   23.9226 H   0  0  0  0  0  0  0  0  0  0  0  0
    8.7255   -5.4730   25.2911 N   0  0  0  0  0  0  0  0  0  0  0  0
   11.0055   -2.7441   21.3608 H   0  0  0  0  0  0  0  0  0  0  0  0
    8.9716   -3.3455   24.8995 C   0  0  0  0  0  0  0  0  0  0  0  0
   10.8782   -2.1674   22.1719 N   0  0  0  0  0  0  0  0  0  0  0  0
    9.8219    1.6842   24.5870 C   0  0  0  0  0  0  0  0  0  0  0  0
    8.0941   -5.1132   26.3901 C   0  0  0  0  0  0  0  0  0  0  0  0
    8.1257   -7.0829   27.0465 H   0  0  0  0  0  0  0  0  0  0  0  0
   10.2909    2.6026   24.9173 H   0  0  0  0  0  0  0  0  0  0  0  0
    9.4461    1.1163   25.4386 H   0  0  0  0  0  0  0  0  0  0  0  0
    8.0712   -3.2893   26.4159 S   0  0  0  0  0  0  0  0  0  0  0  0
    9.7181   -2.3707   24.0937 C   0  0  3  0  0  0  0  0  0  0  0  0
    6.6323   -6.1505   28.0595 C   0  0  0  0  0  0  0  0  0  0  0  0
    9.0945   -4.5444   24.4524 N   0  0  0  0  0  0  0  0  0  0  0  0
   10.3745   -2.9733   23.2010 O   0  0  0  0  0  0  0  0  0  0  0  0
    6.2821   -7.2008   28.5350 O   0  0  0  0  0  0  0  0  0  0  0  0
   11.8286   -0.4176   21.7043 H   0  0  0  0  0  0  0  0  0  0  0  0
    5.9899   -4.6196   28.3811 S   0  5  0  0  0  0  0  0  0  0  0  0
   10.6040   -0.2627   23.4906 C   0  0  0  0  0  0  0  0  0  0  0  0
   11.1787   -0.9270   22.3883 C   0  0  0  0  0  0  0  0  0  0  0  0
    8.8623   -2.2533   23.4126 H   0  0  0  0  0  0  0  0  0  0  0  0
 20 23  1  0  0  0  0
  8 23  1  0  0  0  0
 22 23  2  0  0  0  0
  6  8  1  0  0  0  0
  1 22  1  0  0  0  0
  1  9  1  0  0  0  0
  8 18  1  0  0  0  0
  4  9  1  0  0  0  0
  9 12  1  0  0  0  0
  3 22  1  0  0  0  0
  9 13  1  0  0  0  0
 15 18  1  0  0  0  0
  3 15  1  0  0  0  0
  7 15  1  0  0  0  0
  7 17  2  0  0  0  0
  7 14  1  0  0  0  0
  5 17  1  0  0  0  0
  5 10  2  0  0  0  0
 10 14  1  0  0  0  0
  2 10  1  0  0  0  0
  2 11  1  0  0  0  0
  2 16  1  0  0  0  0
 16 21  1  0  0  0  0
 16 19  2  0  0  0  0
 15 24  1  0  0  0  0
M  CHG  1  21  -1
M  END
> <Chemgauss4>
-6.485920

$$$$
