stable:False satoms:20 tatoms:24 sratio:0.8333333333333334
  -OEChem-07092417353D

 24 23  0     1  0  0  0  0  0999 V2000
    7.5615   -4.4375   25.4788 O   0  0  0  0  0  0  0  0  0  0  0  0
    8.7033   -4.1195   25.7328 N   0  0  0  0  0  0  0  0  0  0  0  0
    9.5057   -4.8487   26.3044 O   0  0  0  0  0  0  0  0  0  0  0  0
    9.5385   -2.1508   26.3391 O   0  0  0  0  0  0  0  0  0  0  0  0
    7.7897   -2.7413   23.7670 H   0  0  0  0  0  0  0  0  0  0  0  0
    8.7360   -2.3072   24.0773 C   0  5  3  0  0  0  0  0  0  0  0  0
    9.3419   -1.3271   23.2911 C   0  0  3  0  0  0  0  0  0  0  0  0
    9.1504   -2.7201   25.3560 C   0  0  0  0  0  0  0  0  0  0  0  0
   10.2830   -0.6031   23.8078 O   0  0  0  0  0  0  0  0  0  0  0  0
   11.8911    0.5985   23.8093 H   0  0  0  0  0  0  0  0  0  0  0  0
   11.6018   -0.3273   23.3289 C   0  0  0  0  0  0  0  0  0  0  0  0
   11.6724   -0.2255   22.2361 H   0  0  0  0  0  0  0  0  0  0  0  0
   12.2422   -1.1459   23.6186 H   0  0  0  0  0  0  0  0  0  0  0  0
    9.6066   -0.7714   20.9028 N   0  0  0  0  0  0  0  0  0  0  0  0
    8.8375   -0.9255   21.8622 C   0  0  0  0  0  0  0  0  0  0  0  0
    8.1105    1.9081   20.2378 Br  0  0  0  0  0  0  0  0  0  0  0  0
    7.6324   -0.7354   21.5954 N   0  0  0  0  0  0  0  0  0  0  0  0
    6.3981   -1.3537   20.1402 H   0  0  0  0  0  0  0  0  0  0  0  0
    9.0583   -0.5396   19.9991 H   0  0  0  0  0  0  0  0  0  0  0  0
    7.0857    0.2543   18.5616 H   0  0  0  0  0  0  0  0  0  0  0  0
    6.7150    0.6437   19.5250 C   0  0  0  0  0  0  0  0  0  0  0  0
    5.7339    1.1134   19.3481 H   0  0  0  0  0  0  0  0  0  0  0  0
    6.6206   -0.4223   20.6709 C   0  0  0  0  0  0  0  0  0  0  0  0
    5.7681   -0.1065   21.3065 H   0  0  0  0  0  0  0  0  0  0  0  0
 20 21  1  0  0  0  0
 21 22  1  0  0  0  0
 16 21  1  0  0  0  0
 21 23  1  0  0  0  0
 14 19  1  0  0  0  0
 18 23  1  0  0  0  0
 23 24  1  0  0  0  0
 17 23  1  0  0  0  0
 14 15  2  0  0  0  0
 15 17  1  0  0  0  0
  7 15  1  0  0  0  0
 11 12  1  0  0  0  0
  7  9  1  0  0  0  0
  6  7  1  0  0  0  0
 11 13  1  0  0  0  0
  9 11  1  0  0  0  0
 10 11  1  0  0  0  0
  5  6  1  0  0  0  0
  6  8  1  0  0  0  0
  2  8  1  0  0  0  0
  4  8  2  0  0  0  0
  1  2  2  0  0  0  0
  2  3  2  0  0  0  0
M  CHG  1   6  -1
M  END
> <Shapegauss>
-144.293243

$$$$
