stable:False satoms:20 tatoms:24 sratio:0.8333333333333334
  -OEChem-08062401073D

 28 27  0     1  0  0  0  0  0999 V2000
   -7.7776   -5.7558  -21.4806 O   0  0  0  0  0  0  0  0  0  0  0  0
   -6.7784   -5.2647  -21.9597 N   0  0  0  0  0  0  0  0  0  0  0  0
   -5.7836   -5.9076  -22.2751 O   0  0  0  0  0  0  0  0  0  0  0  0
   -5.8046   -3.3103  -21.5440 O   0  0  0  0  0  0  0  0  0  0  0  0
   -8.6093   -3.1234  -21.8038 H   0  0  0  0  0  0  0  0  0  0  0  0
   -7.9305   -3.2148  -22.6645 C   0  0  3  0  0  0  0  0  0  0  0  0
   -8.0494   -2.0070  -23.3521 C   0  0  3  0  0  0  0  0  0  0  0  0
   -6.7446   -3.7593  -22.1407 C   0  0  0  0  0  0  0  0  0  0  0  0
   -7.0278   -1.2131  -23.4048 O   0  0  0  0  0  0  0  0  0  0  0  0
   -5.8827    0.2684  -24.1286 H   0  0  0  0  0  0  0  0  0  0  0  0
   -6.3984   -0.5945  -24.5299 C   0  0  0  0  0  0  0  0  0  0  0  0
   -7.0952   -0.2850  -25.3224 H   0  0  0  0  0  0  0  0  0  0  0  0
   -5.7120   -1.3053  -24.9634 H   0  0  0  0  0  0  0  0  0  0  0  0
   -9.5003   -0.9875  -25.0664 N   0  3  0  0  0  0  0  0  0  0  0  0
   -9.4033   -1.4645  -23.9267 C   0  0  0  0  0  0  0  0  0  0  0  0
  -11.1151    1.4093  -23.8383 Br  0  0  0  0  0  0  0  0  0  0  0  0
  -10.4705   -1.4770  -23.2782 N   0  0  0  0  0  0  0  0  0  0  0  0
  -12.3495   -2.0590  -23.6705 H   0  0  0  0  0  0  0  0  0  0  0  0
   -8.6954   -0.9378  -25.6578 H   0  0  0  0  0  0  0  0  0  0  0  0
  -12.9656   -0.0873  -24.8031 H   0  0  0  0  0  0  0  0  0  0  0  0
  -12.5888    0.0387  -23.7739 C   0  0  0  0  0  0  0  0  0  0  0  0
  -13.4381    0.3244  -23.1324 H   0  0  0  0  0  0  0  0  0  0  0  0
  -11.8485   -1.2133  -23.1884 C   0  0  0  0  0  0  0  0  0  0  0  0
  -12.0454   -1.1964  -22.0969 H   0  0  0  0  0  0  0  0  0  0  0  0
   -8.3161   -3.9783  -23.3562 H   0  0  0  0  0  0  0  0  0  0  0  0
   -7.7888   -2.4791  -24.3109 H   0  0  0  0  0  0  0  0  0  0  0  0
  -10.2252   -1.8628  -22.3889 H   0  0  0  0  0  0  0  0  0  0  0  0
  -10.3834   -0.6522  -25.3946 H   0  0  0  0  0  0  0  0  0  0  0  0
 20 21  1  0  0  0  0
 21 22  1  0  0  0  0
 16 21  1  0  0  0  0
 21 23  1  0  0  0  0
 14 19  1  0  0  0  0
 18 23  1  0  0  0  0
 23 24  1  0  0  0  0
 17 23  1  0  0  0  0
 14 15  2  0  0  0  0
 15 17  1  0  0  0  0
  7 15  1  0  0  0  0
 11 12  1  0  0  0  0
  7  9  1  0  0  0  0
  6  7  1  0  0  0  0
 11 13  1  0  0  0  0
  9 11  1  0  0  0  0
 10 11  1  0  0  0  0
  5  6  1  0  0  0  0
  6  8  1  0  0  0  0
  2  8  1  0  0  0  0
  4  8  2  0  0  0  0
  1  2  2  0  0  0  0
  2  3  2  0  0  0  0
  6 25  1  0  0  0  0
  7 26  1  0  0  0  0
 17 27  1  0  0  0  0
 14 28  1  0  0  0  0
M  CHG  1  14   1
M  END
> <Chemgauss4>
-4.319144

$$$$
