stable:False satoms:20 tatoms:24 sratio:0.8333333333333334
  -OEChem-08062401073D

 28 27  0     1  0  0  0  0  0999 V2000
    8.8031   -5.6806   26.1353 O   0  0  0  0  0  0  0  0  0  0  0  0
    7.9949   -5.0634   26.7949 N   0  0  0  0  0  0  0  0  0  0  0  0
    7.4200   -5.5209   27.7760 O   0  0  0  0  0  0  0  0  0  0  0  0
    6.4632   -3.5825   26.1610 O   0  0  0  0  0  0  0  0  0  0  0  0
    8.9758   -3.1774   24.9395 H   0  0  0  0  0  0  0  0  0  0  0  0
    8.7553   -2.8781   25.9748 C   0  0  3  0  0  0  0  0  0  0  0  0
    8.8238   -1.4849   25.9737 C   0  0  3  0  0  0  0  0  0  0  0  0
    7.6460   -3.6550   26.3532 C   0  0  0  0  0  0  0  0  0  0  0  0
    7.7436   -0.8045   26.1905 O   0  0  0  0  0  0  0  0  0  0  0  0
    6.6488    0.7935   26.7171 H   0  0  0  0  0  0  0  0  0  0  0  0
    7.4886    0.2465   27.1258 C   0  0  0  0  0  0  0  0  0  0  0  0
    8.3402    0.9237   27.2861 H   0  0  0  0  0  0  0  0  0  0  0  0
    7.2495   -0.2018   28.0777 H   0  0  0  0  0  0  0  0  0  0  0  0
   10.5251    0.2853   26.2081 N   0  3  0  0  0  0  0  0  0  0  0  0
   10.1013   -0.6786   25.5547 C   0  0  0  0  0  0  0  0  0  0  0  0
   10.8141    1.8786   23.5177 Br  0  0  0  0  0  0  0  0  0  0  0  0
   10.7752   -0.9523   24.5396 N   0  0  0  0  0  0  0  0  0  0  0  0
   12.7317   -1.1995   24.1731 H   0  0  0  0  0  0  0  0  0  0  0  0
   10.0479    0.5756   27.0376 H   0  0  0  0  0  0  0  0  0  0  0  0
   13.2172    1.0975   23.9762 H   0  0  0  0  0  0  0  0  0  0  0  0
   12.4358    0.7045   23.3037 C   0  0  0  0  0  0  0  0  0  0  0  0
   12.8440    0.6872   22.2802 H   0  0  0  0  0  0  0  0  0  0  0  0
   11.8763   -0.7053   23.7012 C   0  0  0  0  0  0  0  0  0  0  0  0
   11.6005   -1.1997   22.7473 H   0  0  0  0  0  0  0  0  0  0  0  0
    9.5734   -3.2055   26.6332 H   0  0  0  0  0  0  0  0  0  0  0  0
    9.1087   -1.4564   27.0358 H   0  0  0  0  0  0  0  0  0  0  0  0
   10.2994   -1.7236   24.1168 H   0  0  0  0  0  0  0  0  0  0  0  0
   11.3442    0.7728   25.9059 H   0  0  0  0  0  0  0  0  0  0  0  0
 20 21  1  0  0  0  0
 21 22  1  0  0  0  0
 16 21  1  0  0  0  0
 21 23  1  0  0  0  0
 14 19  1  0  0  0  0
 18 23  1  0  0  0  0
 23 24  1  0  0  0  0
 17 23  1  0  0  0  0
 14 15  2  0  0  0  0
 15 17  1  0  0  0  0
  7 15  1  0  0  0  0
 11 12  1  0  0  0  0
  7  9  1  0  0  0  0
  6  7  1  0  0  0  0
 11 13  1  0  0  0  0
  9 11  1  0  0  0  0
 10 11  1  0  0  0  0
  5  6  1  0  0  0  0
  6  8  1  0  0  0  0
  2  8  1  0  0  0  0
  4  8  2  0  0  0  0
  1  2  2  0  0  0  0
  2  3  2  0  0  0  0
  6 25  1  0  0  0  0
  7 26  1  0  0  0  0
 17 27  1  0  0  0  0
 14 28  1  0  0  0  0
M  CHG  1  14   1
M  END
> <Chemgauss4>
-4.569214

$$$$
