stable:False satoms:18 tatoms:24 sratio:0.75
  -OEChem-07092417353D

 24 22  0     0  0  0  0  0  0999 V2000
    7.0515   -3.7338   25.0124 H   0  0  0  0  0  0  0  0  0  0  0  0
    7.8137   -3.9470   25.6061 N   0  0  0  0  0  0  0  0  0  0  0  0
    9.9275   -4.5328   25.9454 O   0  0  0  0  0  0  0  0  0  0  0  0
    7.6666   -4.2113   26.5481 H   0  0  0  0  0  0  0  0  0  0  0  0
    9.1230   -3.8744   25.2943 C   0  0  0  0  0  0  0  0  0  0  0  0
    9.4782   -2.9877   24.3107 C   0  0  0  0  0  0  0  0  0  0  0  0
    9.8940   -2.0019   23.8492 C   0  0  0  0  0  0  0  0  0  0  0  0
    8.0301   -1.5665   22.1232 H   0  0  0  0  0  0  0  0  0  0  0  0
   11.6656   -0.7546   22.8780 C   0  0  0  0  0  0  0  0  0  0  0  0
   10.5325   -1.0173   23.5534 C   0  0  0  0  0  0  0  0  0  0  0  0
   12.0455    0.2621   22.9617 H   0  0  0  0  0  0  0  0  0  0  0  0
   12.4371   -1.4198   23.2463 H   0  0  0  0  0  0  0  0  0  0  0  0
   11.4557   -1.0052   21.8331 H   0  0  0  0  0  0  0  0  0  0  0  0
    7.9666   -0.0230   22.9074 H   0  0  0  0  0  0  0  0  0  0  0  0
    7.9932   -0.4943   21.9396 C   0  0  0  0  0  0  0  0  0  0  0  0
    8.7274    1.5892   20.6572 H   0  0  0  0  0  0  0  0  0  0  0  0
    8.9244   -0.2451   21.4518 H   0  0  0  0  0  0  0  0  0  0  0  0
    6.2092   -0.9045   20.7886 H   0  0  0  0  0  0  0  0  0  0  0  0
    7.8518   -0.2158   19.1912 H   0  0  0  0  0  0  0  0  0  0  0  0
    8.1135    1.6787   19.8203 N   0  5  0  0  0  0  0  0  0  0  0  0
    6.4457    0.8660   19.0751 H   0  0  0  0  0  0  0  0  0  0  0  0
    7.2978    0.5967   19.7147 C   0  0  0  0  0  0  0  0  0  0  0  0
    6.1429    0.6946   21.5274 H   0  0  0  0  0  0  0  0  0  0  0  0
    6.7905   -0.0422   21.0614 C   0  0  0  0  0  0  0  0  0  0  0  0
 21 22  1  0  0  0  0
 19 22  1  0  0  0  0
 20 22  1  0  0  0  0
 22 24  1  0  0  0  0
 16 20  1  0  0  0  0
 18 24  1  0  0  0  0
 23 24  1  0  0  0  0
 15 24  1  0  0  0  0
 15 17  1  0  0  0  0
  9 13  1  0  0  0  0
  8 15  1  0  0  0  0
 14 15  1  0  0  0  0
  9 11  1  0  0  0  0
  9 12  1  0  0  0  0
  9 10  1  0  0  0  0
  7 10  1  0  0  0  0
  6  7  3  0  0  0  0
  5  6  1  0  0  0  0
  1  2  1  0  0  0  0
  2  5  1  0  0  0  0
  3  5  2  0  0  0  0
  2  4  1  0  0  0  0
M  CHG  1  20  -1
M  END
> <Shapegauss>
-107.713295

$$$$
