MODEL 1
REMARK VINA RESULT:    -5.354      0.000      0.000
REMARK INTER + INTRA:          -5.354
REMARK INTER:                  -5.354
REMARK INTRA:                   0.000
REMARK UNBOUND:                 0.000
REMARK  0 active torsions:
REMARK  status: ('A' for Active; 'I' for Inactive)
ROOT
HETATM    1  N   UNL     1       0.512 -20.382   9.522  1.00  0.00    -0.249 NA
HETATM    2  C   UNL     1      -0.072 -21.664   9.543  1.00  0.00     0.100 C 
HETATM    3  C   UNL     1       1.389 -19.746   8.922  1.00  0.00     0.110 A 
HETATM    4  C   UNL     1       0.699 -17.573   8.960  1.00  0.00     0.114 C 
HETATM    5  C   UNL     1      -1.118 -19.452   8.964  1.00  0.00     0.047 C 
HETATM    6  C   UNL     1       1.868 -22.210   8.323  1.00  0.00     0.171 C 
HETATM    7  C   UNL     1       0.260 -19.100   8.932  1.00  0.00     0.104 A 
HETATM    8  C   UNL     1       1.156 -22.457   9.730  1.00  0.00     0.041 C 
HETATM    9  O   UNL     1       2.948 -21.532   7.951  1.00  0.00    -0.370 OA
HETATM   10  C   UNL     1       3.705 -20.288   8.365  1.00  0.00     0.319 C 
HETATM   11  N   UNL     1       2.934 -17.991   8.499  1.00  0.00    -0.238 N 
HETATM   12  N   UNL     1       2.722 -19.327   8.496  1.00  0.00    -0.245 N 
HETATM   13  H   UNL     1       3.919 -17.707   8.624  1.00  0.00     0.208 HD
HETATM   14  N   UNL     1       1.942 -17.201   8.794  1.00  0.00    -0.299 N 
ATOM     15  HN  UNL     1       2.151 -16.209   8.905  1.00  0.00     0.187 HD
ENDROOT
TORSDOF 0
ENDMDL
MODEL 2
REMARK VINA RESULT:    -5.069     21.239     22.618
REMARK INTER + INTRA:          -5.069
REMARK INTER:                  -5.069
REMARK INTRA:                   0.000
REMARK UNBOUND:                 0.000
REMARK  0 active torsions:
REMARK  status: ('A' for Active; 'I' for Inactive)
ROOT
HETATM    1  N   UNL     1       6.346  -4.369  24.464  1.00  0.00    -0.249 NA
HETATM    2  C   UNL     1       5.900  -4.023  23.173  1.00  0.00     0.100 C 
HETATM    3  C   UNL     1       6.314  -5.318  25.259  1.00  0.00     0.110 A 
HETATM    4  C   UNL     1       8.225  -5.147  26.491  1.00  0.00     0.114 C 
HETATM    5  C   UNL     1       8.253  -4.268  24.029  1.00  0.00     0.047 C 
HETATM    6  C   UNL     1       4.508  -5.894  23.508  1.00  0.00     0.171 C 
HETATM    7  C   UNL     1       7.529  -4.888  25.086  1.00  0.00     0.104 A 
HETATM    8  C   UNL     1       4.466  -4.305  23.357  1.00  0.00     0.041 C 
HETATM    9  O   UNL     1       4.301  -6.722  24.525  1.00  0.00    -0.370 OA
HETATM   10  C   UNL     1       4.483  -6.742  26.028  1.00  0.00     0.319 C 
HETATM   11  N   UNL     1       6.507  -6.458  27.335  1.00  0.00    -0.238 N 
HETATM   12  N   UNL     1       5.773  -6.283  26.213  1.00  0.00    -0.245 N 
HETATM   13  H   UNL     1       5.972  -6.769  28.162  1.00  0.00     0.208 HD
HETATM   14  N   UNL     1       7.646  -5.834  27.440  1.00  0.00    -0.299 N 
ATOM     15  HN  UNL     1       8.127  -5.887  28.339  1.00  0.00     0.187 HD
ENDROOT
TORSDOF 0
ENDMDL
MODEL 3
REMARK VINA RESULT:    -5.059      1.735      3.136
REMARK INTER + INTRA:          -5.059
REMARK INTER:                  -5.059
REMARK INTRA:                   0.000
REMARK UNBOUND:                 0.000
REMARK  0 active torsions:
REMARK  status: ('A' for Active; 'I' for Inactive)
ROOT
HETATM    1  N   UNL     1       0.614 -20.546   8.479  1.00  0.00    -0.249 NA
HETATM    2  C   UNL     1      -0.575 -21.281   8.650  1.00  0.00     0.100 C 
HETATM    3  C   UNL     1       1.101 -19.443   8.763  1.00  0.00     0.110 A 
HETATM    4  C   UNL     1       3.346 -19.795   8.943  1.00  0.00     0.114 C 
HETATM    5  C   UNL     1       1.730 -21.765   9.530  1.00  0.00     0.047 C 
HETATM    6  C   UNL     1      -1.429 -19.151   9.182  1.00  0.00     0.171 C 
HETATM    7  C   UNL     1       1.892 -20.414   9.115  1.00  0.00     0.104 A 
HETATM    8  C   UNL     1      -1.518 -20.302   8.081  1.00  0.00     0.041 C 
HETATM    9  O   UNL     1      -0.918 -17.924   9.186  1.00  0.00    -0.370 OA
HETATM   10  C   UNL     1       0.229 -17.171   8.546  1.00  0.00     0.319 C 
HETATM   11  N   UNL     1       2.612 -17.612   8.661  1.00  0.00    -0.238 N 
HETATM   12  N   UNL     1       1.318 -17.999   8.736  1.00  0.00    -0.245 N 
HETATM   13  H   UNL     1       2.766 -16.689   8.225  1.00  0.00     0.208 HD
HETATM   14  N   UNL     1       3.540 -18.526   8.699  1.00  0.00    -0.299 N 
ATOM     15  HN  UNL     1       4.499 -18.225   8.524  1.00  0.00     0.187 HD
ENDROOT
TORSDOF 0
ENDMDL
MODEL 4
REMARK VINA RESULT:    -5.006     35.349     36.167
REMARK INTER + INTRA:          -5.006
REMARK INTER:                  -5.006
REMARK INTRA:                   0.000
REMARK UNBOUND:                 0.000
REMARK  0 active torsions:
REMARK  status: ('A' for Active; 'I' for Inactive)
ROOT
HETATM    1  N   UNL     1       8.354  14.927   5.318  1.00  0.00    -0.249 NA
HETATM    2  C   UNL     1       7.073  15.228   5.820  1.00  0.00     0.100 C 
HETATM    3  C   UNL     1       9.012  15.017   4.273  1.00  0.00     0.110 A 
HETATM    4  C   UNL     1      11.183  15.239   4.935  1.00  0.00     0.114 C 
HETATM    5  C   UNL     1       9.306  16.160   6.505  1.00  0.00     0.047 C 
HETATM    6  C   UNL     1       6.572  15.399   3.524  1.00  0.00     0.171 C 
HETATM    7  C   UNL     1       9.658  15.522   5.283  1.00  0.00     0.104 A 
HETATM    8  C   UNL     1       6.272  14.508   4.814  1.00  0.00     0.041 C 
HETATM    9  O   UNL     1       7.263  15.192   2.409  1.00  0.00    -0.370 OA
HETATM   10  C   UNL     1       8.490  14.427   1.960  1.00  0.00     0.319 C 
HETATM   11  N   UNL     1      10.781  14.598   2.742  1.00  0.00    -0.238 N 
HETATM   12  N   UNL     1       9.446  14.746   2.904  1.00  0.00    -0.245 N 
HETATM   13  H   UNL     1      11.059  14.012   1.939  1.00  0.00     0.208 HD
HETATM   14  N   UNL     1      11.560  14.783   3.770  1.00  0.00    -0.299 N 
ATOM     15  HN  UNL     1      12.547  14.553   3.655  1.00  0.00     0.187 HD
ENDROOT
TORSDOF 0
ENDMDL
MODEL 5
REMARK VINA RESULT:    -4.900     24.515     26.236
REMARK INTER + INTRA:          -4.900
REMARK INTER:                  -4.900
REMARK INTRA:                   0.000
REMARK UNBOUND:                 0.000
REMARK  0 active torsions:
REMARK  status: ('A' for Active; 'I' for Inactive)
ROOT
HETATM    1  N   UNL     1       9.723   1.220  23.652  1.00  0.00    -0.249 NA
HETATM    2  C   UNL     1       9.440   2.590  23.820  1.00  0.00     0.100 C 
HETATM    3  C   UNL     1       9.722   0.349  22.771  1.00  0.00     0.110 A 
HETATM    4  C   UNL     1      11.354  -1.126  23.371  1.00  0.00     0.114 C 
HETATM    5  C   UNL     1      11.631   1.379  24.064  1.00  0.00     0.047 C 
HETATM    6  C   UNL     1       8.344   2.282  21.758  1.00  0.00     0.171 C 
HETATM    7  C   UNL     1      10.860   0.384  23.401  1.00  0.00     0.104 A 
HETATM    8  C   UNL     1       8.062   2.592  23.298  1.00  0.00     0.041 C 
HETATM    9  O   UNL     1       8.117   1.230  20.979  1.00  0.00    -0.370 OA
HETATM   10  C   UNL     1       8.055  -0.278  21.099  1.00  0.00     0.319 C 
HETATM   11  N   UNL     1       9.765  -1.834  21.835  1.00  0.00    -0.238 N 
HETATM   12  N   UNL     1       9.203  -0.605  21.795  1.00  0.00    -0.245 N 
HETATM   13  H   UNL     1       9.163  -2.600  21.492  1.00  0.00     0.208 HD
HETATM   14  N   UNL     1      10.752  -2.043  22.660  1.00  0.00    -0.299 N 
ATOM     15  HN  UNL     1      11.083  -3.003  22.758  1.00  0.00     0.187 HD
ENDROOT
TORSDOF 0
ENDMDL
MODEL 6
REMARK VINA RESULT:    -4.875     21.508     22.766
REMARK INTER + INTRA:          -4.875
REMARK INTER:                  -4.875
REMARK INTRA:                   0.000
REMARK UNBOUND:                 0.000
REMARK  0 active torsions:
REMARK  status: ('A' for Active; 'I' for Inactive)
ROOT
HETATM    1  N   UNL     1       5.136  -6.121  25.335  1.00  0.00    -0.249 NA
HETATM    2  C   UNL     1       4.208  -5.821  24.318  1.00  0.00     0.100 C 
HETATM    3  C   UNL     1       6.194  -5.691  25.815  1.00  0.00     0.110 A 
HETATM    4  C   UNL     1       6.156  -6.295  28.013  1.00  0.00     0.114 C 
HETATM    5  C   UNL     1       3.878  -5.845  26.811  1.00  0.00     0.047 C 
HETATM    6  C   UNL     1       5.981  -4.472  23.550  1.00  0.00     0.171 C 
HETATM    7  C   UNL     1       5.299  -5.884  26.740  1.00  0.00     0.104 A 
HETATM    8  C   UNL     1       5.143  -5.779  23.179  1.00  0.00     0.041 C 
HETATM    9  O   UNL     1       7.230  -4.270  23.953  1.00  0.00    -0.370 OA
HETATM   10  C   UNL     1       8.286  -4.978  24.775  1.00  0.00     0.319 C 
HETATM   11  N   UNL     1       8.200  -5.708  27.087  1.00  0.00    -0.238 N 
HETATM   12  N   UNL     1       7.614  -5.366  25.918  1.00  0.00    -0.245 N 
HETATM   13  H   UNL     1       9.216  -5.887  27.029  1.00  0.00     0.208 HD
HETATM   14  N   UNL     1       7.460  -6.212  28.034  1.00  0.00    -0.299 N 
ATOM     15  HN  UNL     1       7.939  -6.570  28.860  1.00  0.00     0.187 HD
ENDROOT
TORSDOF 0
ENDMDL
MODEL 7
REMARK VINA RESULT:    -4.859     35.441     37.084
REMARK INTER + INTRA:          -4.859
REMARK INTER:                  -4.859
REMARK INTRA:                   0.000
REMARK UNBOUND:                 0.000
REMARK  0 active torsions:
REMARK  status: ('A' for Active; 'I' for Inactive)
ROOT
HETATM    1  N   UNL     1       8.002  15.924   3.269  1.00  0.00    -0.249 NA
HETATM    2  C   UNL     1       7.132  14.883   2.889  1.00  0.00     0.100 C 
HETATM    3  C   UNL     1       9.199  16.120   3.523  1.00  0.00     0.110 A 
HETATM    4  C   UNL     1       9.600  18.286   2.937  1.00  0.00     0.114 C 
HETATM    5  C   UNL     1       7.758  16.969   1.631  1.00  0.00     0.047 C 
HETATM    6  C   UNL     1       8.944  13.553   3.595  1.00  0.00     0.171 C 
HETATM    7  C   UNL     1       8.756  16.972   2.645  1.00  0.00     0.104 A 
HETATM    8  C   UNL     1       7.442  13.936   3.975  1.00  0.00     0.041 C 
HETATM    9  O   UNL     1      10.123  13.814   4.149  1.00  0.00    -0.370 OA
HETATM   10  C   UNL     1      10.782  14.920   4.945  1.00  0.00     0.319 C 
HETATM   11  N   UNL     1      11.116  17.250   4.355  1.00  0.00    -0.238 N 
HETATM   12  N   UNL     1      10.468  16.068   4.244  1.00  0.00    -0.245 N 
HETATM   13  H   UNL     1      11.739  17.329   5.175  1.00  0.00     0.208 HD
HETATM   14  N   UNL     1      10.615  18.296   3.761  1.00  0.00    -0.299 N 
ATOM     15  HN  UNL     1      11.053  19.197   3.953  1.00  0.00     0.187 HD
ENDROOT
TORSDOF 0
ENDMDL
MODEL 8
REMARK VINA RESULT:    -4.850     20.908     22.331
REMARK INTER + INTRA:          -4.850
REMARK INTER:                  -4.850
REMARK INTRA:                   0.000
REMARK UNBOUND:                 0.000
REMARK  0 active torsions:
REMARK  status: ('A' for Active; 'I' for Inactive)
ROOT
HETATM    1  N   UNL     1       7.742  -4.947  24.839  1.00  0.00    -0.249 NA
HETATM    2  C   UNL     1       8.213  -4.292  25.994  1.00  0.00     0.100 C 
HETATM    3  C   UNL     1       6.680  -5.324  24.325  1.00  0.00     0.110 A 
HETATM    4  C   UNL     1       7.028  -5.239  22.074  1.00  0.00     0.114 C 
HETATM    5  C   UNL     1       8.323  -3.551  23.593  1.00  0.00     0.047 C 
HETATM    6  C   UNL     1       6.060  -4.835  26.782  1.00  0.00     0.171 C 
HETATM    7  C   UNL     1       7.383  -4.615  23.491  1.00  0.00     0.104 A 
HETATM    8  C   UNL     1       7.604  -5.174  27.005  1.00  0.00     0.041 C 
HETATM    9  O   UNL     1       5.037  -5.517  26.281  1.00  0.00    -0.370 OA
HETATM   10  C   UNL     1       4.785  -6.574  25.227  1.00  0.00     0.319 C 
HETATM   11  N   UNL     1       5.251  -6.515  22.847  1.00  0.00    -0.238 N 
HETATM   12  N   UNL     1       5.466  -6.110  24.119  1.00  0.00    -0.245 N 
HETATM   13  H   UNL     1       4.689  -7.377  22.753  1.00  0.00     0.208 HD
HETATM   14  N   UNL     1       6.073  -6.119  21.917  1.00  0.00    -0.299 N 
ATOM     15  HN  UNL     1       5.962  -6.528  20.989  1.00  0.00     0.187 HD
ENDROOT
TORSDOF 0
ENDMDL
MODEL 9
REMARK VINA RESULT:    -4.779     22.704     24.316
REMARK INTER + INTRA:          -4.779
REMARK INTER:                  -4.779
REMARK INTRA:                   0.000
REMARK UNBOUND:                 0.000
REMARK  0 active torsions:
REMARK  status: ('A' for Active; 'I' for Inactive)
ROOT
HETATM    1  N   UNL     1       9.286  -0.210  21.687  1.00  0.00    -0.249 NA
HETATM    2  C   UNL     1      10.509  -0.106  22.379  1.00  0.00     0.100 C 
HETATM    3  C   UNL     1       8.169  -0.733  21.801  1.00  0.00     0.110 A 
HETATM    4  C   UNL     1       6.733   0.646  20.690  1.00  0.00     0.114 C 
HETATM    5  C   UNL     1       8.855   1.697  21.799  1.00  0.00     0.047 C 
HETATM    6  C   UNL     1       9.622  -1.944  23.556  1.00  0.00     0.171 C 
HETATM    7  C   UNL     1       8.072   0.538  21.540  1.00  0.00     0.104 A 
HETATM    8  C   UNL     1      10.787  -1.544  22.541  1.00  0.00     0.041 C 
HETATM    9  O   UNL     1       8.517  -2.671  23.440  1.00  0.00    -0.370 OA
HETATM   10  C   UNL     1       7.484  -3.004  22.384  1.00  0.00     0.319 C 
HETATM   11  N   UNL     1       6.029  -1.519  21.133  1.00  0.00    -0.238 N 
HETATM   12  N   UNL     1       7.149  -1.777  21.846  1.00  0.00    -0.245 N 
HETATM   13  H   UNL     1       5.519  -2.356  20.806  1.00  0.00     0.208 HD
HETATM   14  N   UNL     1       5.915  -0.363  20.545  1.00  0.00    -0.299 N 
ATOM     15  HN  UNL     1       5.120  -0.233  19.919  1.00  0.00     0.187 HD
ENDROOT
TORSDOF 0
ENDMDL
