REMARK  0 active torsions:
REMARK  status: ('A' for Active; 'I' for Inactive)
ROOT
HETATM    1  N   UNL     1       8.989  -1.746  23.269  1.00  0.00    -0.249 NA
HETATM    2  C   UNL     1       9.640  -1.249  24.415  1.00  0.00     0.100 C 
HETATM    3  C   UNL     1       8.597  -1.366  22.157  1.00  0.00     0.110 A 
HETATM    4  C   UNL     1       8.712  -3.202  20.810  1.00  0.00     0.114 C 
HETATM    5  C   UNL     1      10.408  -3.008  22.790  1.00  0.00     0.047 C 
HETATM    6  C   UNL     1       9.048   0.819  23.454  1.00  0.00     0.171 C 
HETATM    7  C   UNL     1       9.328  -2.438  22.060  1.00  0.00     0.104 A 
HETATM    8  C   UNL     1       8.736  -0.122  24.705  1.00  0.00     0.041 C 
HETATM    9  O   UNL     1       8.352   1.174  22.380  1.00  0.00    -0.370 OA
HETATM   10  C   UNL     1       7.301   0.585  21.463  1.00  0.00     0.319 C 
HETATM   11  N   UNL     1       7.394  -1.426  20.109  1.00  0.00    -0.238 N 
HETATM   12  N   UNL     1       7.790  -0.670  21.158  1.00  0.00    -0.245 N 
HETATM   13  H   UNL     1       6.523  -1.113  19.651  1.00  0.00     0.208 HD
HETATM   14  N   UNL     1       7.816  -2.656  20.030  1.00  0.00    -0.299 N 
ATOM     15  HN  UNL     1       7.414  -3.242  19.298  1.00  0.00     0.187 HD
ENDROOT
TORSDOF 0
