REMARK  10 active torsions:
REMARK  status: ('A' for Active; 'I' for Inactive)
REMARK    1  A    between atoms: S_2  and  N_5 
REMARK    2  A    between atoms: N_5  and  C_7 
REMARK    3  A    between atoms: C_8  and  C_9 
REMARK    4  A    between atoms: C_9  and  C_10 
REMARK    5  A    between atoms: C_10  and  C_11 
REMARK    6  A    between atoms: C_11  and  C_12 
REMARK    7  A    between atoms: C_12  and  N_13 
REMARK    8  A    between atoms: C_16  and  C_17 
REMARK       I    between atoms: C_17  and  N_19 
REMARK    9  A    between atoms: N_19  and  C_21 
REMARK   10  A    between atoms: N_23  and  C_26 
ROOT
HETATM    1  C   UNL     1      10.121  -1.013  23.411  1.00  0.00     0.024 C 
HETATM    2  C   UNL     1       9.882  -0.530  22.263  1.00  0.00     0.095 C 
ENDROOT
BRANCH   1   3
HETATM    3  C   UNL     1       9.423  -2.074  23.809  1.00  0.00    -0.043 C 
HETATM    4  C   UNL     1       8.863  -2.893  24.273  1.00  0.00     0.028 C 
BRANCH   4   5
HETATM    5  N   UNL     1       8.029  -3.629  24.767  1.00  0.00    -0.223 N 
ATOM      6  HN  UNL     1       7.194  -3.824  24.215  1.00  0.00     0.192 HD
BRANCH   5   7
HETATM    7  S   UNL     1       8.132  -4.327  26.229  1.00  0.00     0.216 S 
HETATM    8  O   UNL     1       6.743  -4.821  26.513  1.00  0.00    -0.577 OA
HETATM    9  O   UNL     1       9.057  -5.460  26.123  1.00  0.00    -0.577 OA
HETATM   10  O   UNL     1       8.589  -3.391  27.222  1.00  0.00    -0.577 OA
ENDBRANCH   5   7
ENDBRANCH   4   5
ENDBRANCH   1   3
BRANCH   1  11
HETATM   11  C   UNL     1      10.967  -0.243  24.203  1.00  0.00     0.022 C 
BRANCH  11  12
HETATM   12  C   UNL     1      12.112   0.294  24.256  1.00  0.00     0.018 C 
BRANCH  12  13
HETATM   13  C   UNL     1      12.849  -0.340  23.487  1.00  0.00     0.080 C 
BRANCH  13  14
HETATM   14  N   UNL     1      12.901  -1.216  22.752  1.00  0.00    -0.408 N 
HETATM   15  H   UNL     1      12.192  -1.781  22.538  1.00  0.00     0.155 HD
ATOM     16  HN  UNL     1      13.796  -1.392  22.295  1.00  0.00     0.155 HD
ENDBRANCH  13  14
ENDBRANCH  12  13
ENDBRANCH  11  12
ENDBRANCH   1  11
BRANCH   2  17
HETATM   17  C   UNL     1       9.100   0.115  21.365  1.00  0.00     0.247 C 
HETATM   18  O   UNL     1       9.448   1.139  20.845  1.00  0.00    -0.268 OA
HETATM   19  N   UNL     1       7.868  -0.466  21.226  1.00  0.00    -0.318 N 
ATOM     20  HN  UNL     1       7.582  -1.245  21.819  1.00  0.00     0.169 HD
BRANCH  19  21
HETATM   21  C   UNL     1       7.090  -0.000  20.330  1.00  0.00     0.078 A 
HETATM   22  S   UNL     1       7.600   0.108  18.717  1.00  0.00    -0.055 SA
HETATM   23  C   UNL     1       6.055   0.719  18.226  1.00  0.00     0.069 A 
HETATM   24  C   UNL     1       5.425   0.820  19.411  1.00  0.00     0.039 A 
HETATM   25  C   UNL     1       5.777   0.467  20.564  1.00  0.00     0.040 A 
BRANCH  23  26
HETATM   26  N   UNL     1       6.076   0.735  17.239  1.00  0.00    -0.393 N 
ATOM     27  HN2 UNL     1       6.553   0.658  16.341  1.00  0.00     0.156 HD
ATOM     28  HN1 UNL     1       5.166   1.095  16.950  1.00  0.00     0.156 HD
ENDBRANCH  23  26
ENDBRANCH  19  21
ENDBRANCH   2  17
TORSDOF 10
