stable:False satoms:12 tatoms:24 sratio:0.5
  -OEChem-07092417433D

 24 24  0     0  0  0  0  0  0999 V2000
    6.7432   -4.8205   26.5131 O   0  0  0  0  0  0  0  0  0  0  0  0
    8.1324   -4.3274   26.2294 S   0  0  0  0  0  0  0  0  0  0  0  0
    9.0570   -5.4599   26.1234 O   0  0  0  0  0  0  0  0  0  0  0  0
    8.5889   -3.3913   27.2224 O   0  5  0  0  0  0  0  0  0  0  0  0
    8.0294   -3.6289   24.7671 N   0  0  0  0  0  0  0  0  0  0  0  0
    8.8625   -2.8925   24.2731 C   0  0  0  0  0  0  0  0  0  0  0  0
    9.4230   -2.0739   23.8087 C   0  0  0  0  0  0  0  0  0  0  0  0
   10.1208   -1.0127   23.4110 C   0  0  0  0  0  0  0  0  0  0  0  0
   10.9666   -0.2432   24.2035 C   0  0  0  0  0  0  0  0  0  0  0  0
   12.1123    0.2945   24.2556 C   0  0  0  0  0  0  0  0  0  0  0  0
   12.8489   -0.3399   23.4869 C   0  0  0  0  0  0  0  0  0  0  0  0
   12.9013   -1.2162   22.7524 N   0  5  0  0  0  0  0  0  0  0  0  0
   12.1920   -1.7806   22.5381 H   0  0  0  0  0  0  0  0  0  0  0  0
    9.8822   -0.5296   22.2632 C   0  0  0  0  0  0  0  0  0  0  0  0
    9.1003    0.1152   21.3654 C   0  0  0  0  0  0  0  0  0  0  0  0
    9.4485    1.1393   20.8447 O   0  0  0  0  0  0  0  0  0  0  0  0
    7.8681   -0.4655   21.2256 N   0  0  0  0  0  0  0  0  0  0  0  0
    7.0897   -0.0004   20.3304 C   0  0  0  0  0  0  0  0  0  0  0  0
    7.6004    0.1082   18.7169 S   0  0  0  0  0  0  0  0  0  0  0  0
    6.0761    0.7353   17.2393 N   0  0  0  0  0  0  0  0  0  0  0  0
    6.0548    0.7190   18.2260 C   0  0  0  0  0  0  0  0  0  0  0  0
    5.4253    0.8201   19.4109 C   0  0  0  0  0  0  0  0  0  0  0  0
    5.7775    0.4666   20.5643 C   0  0  0  0  0  0  0  0  0  0  0  0
    5.2829    0.4943   21.5255 H   0  0  0  0  0  0  0  0  0  0  0  0
 20 21  1  0  0  0  0
 19 21  1  0  0  0  0
 21 22  2  0  0  0  0
 18 19  1  0  0  0  0
 22 23  1  0  0  0  0
 18 23  2  0  0  0  0
 17 18  1  0  0  0  0
 23 24  1  0  0  0  0
 15 16  2  0  0  0  0
 15 17  1  0  0  0  0
 14 15  1  0  0  0  0
  8 14  2  3  0  0  0
 12 13  1  0  0  0  0
 11 12  1  0  0  0  0
  7  8  1  0  0  0  0
  8  9  1  0  0  0  0
 10 11  1  0  0  0  0
  6  7  3  0  0  0  0
  9 10  1  0  0  0  0
  5  6  1  0  0  0  0
  2  5  1  0  0  0  0
  2  3  2  0  0  0  0
  1  2  2  0  0  0  0
  2  4  1  0  0  0  0
M  CHG  2   4  -1  12  -1
M  END
> <Shapegauss>
-272.411530

$$$$
