MODEL 1
REMARK VINA RESULT:    -6.140      0.000      0.000
REMARK INTER + INTRA:         -10.170
REMARK INTER:                  -9.371
REMARK INTRA:                  -0.799
REMARK UNBOUND:                -0.799
REMARK  10 active torsions:
REMARK  status: ('A' for Active; 'I' for Inactive)
REMARK    1  A    between atoms: S_2  and  N_5 
REMARK    2  A    between atoms: N_5  and  C_7 
REMARK    3  A    between atoms: C_8  and  C_9 
REMARK    4  A    between atoms: C_9  and  C_10 
REMARK    5  A    between atoms: C_10  and  C_11 
REMARK    6  A    between atoms: C_11  and  C_12 
REMARK    7  A    between atoms: C_12  and  N_13 
REMARK    8  A    between atoms: C_16  and  C_17 
REMARK       I    between atoms: C_17  and  N_19 
REMARK    9  A    between atoms: N_19  and  C_21 
REMARK   10  A    between atoms: N_23  and  C_26 
ROOT
HETATM    1  C   UNL     1       7.212   2.738  22.415  1.00  0.00     0.024 C 
HETATM    2  C   UNL     1       8.211   2.088  22.848  1.00  0.00     0.095 C 
ENDROOT
BRANCH   1   3
HETATM    3  C   UNL     1       6.464   2.187  21.461  1.00  0.00    -0.043 C 
HETATM    4  C   UNL     1       5.915   1.828  20.584  1.00  0.00     0.028 C 
BRANCH   4   5
HETATM    5  N   UNL     1       5.527   1.274  19.573  1.00  0.00    -0.223 N 
ATOM      6  HN  UNL     1       4.720   1.679  19.099  1.00  0.00     0.192 HD
BRANCH   5   7
HETATM    7  S   UNL     1       6.185  -0.056  18.913  1.00  0.00     0.216 S 
HETATM    8  O   UNL     1       7.652   0.250  18.826  1.00  0.00    -0.577 OA
HETATM    9  O   UNL     1       5.958  -1.175  19.834  1.00  0.00    -0.577 OA
HETATM   10  O   UNL     1       5.611  -0.336  17.624  1.00  0.00    -0.577 OA
ENDBRANCH   5   7
ENDBRANCH   4   5
ENDBRANCH   1   3
BRANCH   1  11
HETATM   11  C   UNL     1       7.131   4.052  22.865  1.00  0.00     0.022 C 
BRANCH  11  12
HETATM   12  C   UNL     1       7.695   5.184  22.824  1.00  0.00     0.018 C 
BRANCH  12  13
HETATM   13  C   UNL     1       7.051   5.885  22.030  1.00  0.00     0.080 C 
BRANCH  13  14
HETATM   14  N   UNL     1       7.091   6.806  21.351  1.00  0.00    -0.408 N 
HETATM   15  H   UNL     1       7.362   7.657  21.615  1.00  0.00     0.155 HD
ATOM     16  HN  UNL     1       6.807   6.684  20.379  1.00  0.00     0.155 HD
ENDBRANCH  13  14
ENDBRANCH  12  13
ENDBRANCH  11  12
ENDBRANCH   1  11
BRANCH   2  17
HETATM   17  C   UNL     1       9.444   1.542  22.717  1.00  0.00     0.247 C 
HETATM   18  O   UNL     1      10.142   1.779  21.770  1.00  0.00    -0.268 OA
HETATM   19  N   UNL     1       9.725   0.633  23.701  1.00  0.00    -0.318 N 
ATOM     20  HN  UNL     1       9.020   0.363  24.387  1.00  0.00     0.169 HD
BRANCH  19  21
HETATM   21  C   UNL     1      10.898   0.136  23.732  1.00  0.00     0.078 A 
HETATM   22  S   UNL     1      11.236  -1.326  22.942  1.00  0.00    -0.055 SA
HETATM   23  C   UNL     1      12.906  -1.231  23.392  1.00  0.00     0.069 A 
HETATM   24  C   UNL     1      12.909  -0.123  24.156  1.00  0.00     0.039 A 
HETATM   25  C   UNL     1      12.001   0.710  24.402  1.00  0.00     0.040 A 
BRANCH  23  26
HETATM   26  N   UNL     1      13.356  -1.959  22.900  1.00  0.00    -0.393 N 
ATOM     27  HN2 UNL     1      14.116  -2.335  22.333  1.00  0.00     0.156 HD
ATOM     28  HN1 UNL     1      12.682  -2.724  22.861  1.00  0.00     0.156 HD
ENDBRANCH  23  26
ENDBRANCH  19  21
ENDBRANCH   2  17
TORSDOF 10
ENDMDL
MODEL 2
REMARK VINA RESULT:    -6.118      4.119      5.968
REMARK INTER + INTRA:         -10.137
REMARK INTER:                  -9.384
REMARK INTRA:                  -0.753
REMARK UNBOUND:                -0.799
REMARK  10 active torsions:
REMARK  status: ('A' for Active; 'I' for Inactive)
REMARK    1  A    between atoms: S_2  and  N_5 
REMARK    2  A    between atoms: N_5  and  C_7 
REMARK    3  A    between atoms: C_8  and  C_9 
REMARK    4  A    between atoms: C_9  and  C_10 
REMARK    5  A    between atoms: C_10  and  C_11 
REMARK    6  A    between atoms: C_11  and  C_12 
REMARK    7  A    between atoms: C_12  and  N_13 
REMARK    8  A    between atoms: C_16  and  C_17 
REMARK       I    between atoms: C_17  and  N_19 
REMARK    9  A    between atoms: N_19  and  C_21 
REMARK   10  A    between atoms: N_23  and  C_26 
ROOT
HETATM    1  C   UNL     1       8.310  -0.354  21.125  1.00  0.00     0.024 C 
HETATM    2  C   UNL     1       8.132  -1.395  21.827  1.00  0.00     0.095 C 
ENDROOT
BRANCH   1   3
HETATM    3  C   UNL     1       9.260   0.502  21.493  1.00  0.00    -0.043 C 
HETATM    4  C   UNL     1       9.997   1.290  21.683  1.00  0.00     0.028 C 
BRANCH   4   5
HETATM    5  N   UNL     1      10.610   2.282  22.033  1.00  0.00    -0.223 N 
ATOM      6  HN  UNL     1      10.940   2.908  21.299  1.00  0.00     0.192 HD
BRANCH   5   7
HETATM    7  S   UNL     1      10.945   2.693  23.567  1.00  0.00     0.216 S 
HETATM    8  O   UNL     1      11.898   1.636  24.044  1.00  0.00    -0.577 OA
HETATM    9  O   UNL     1      11.611   3.999  23.548  1.00  0.00    -0.577 OA
HETATM   10  O   UNL     1       9.749   2.746  24.365  1.00  0.00    -0.577 OA
ENDBRANCH   5   7
ENDBRANCH   4   5
ENDBRANCH   1   3
BRANCH   1  11
HETATM   11  C   UNL     1       7.343  -0.136  20.148  1.00  0.00     0.022 C 
BRANCH  11  12
HETATM   12  C   UNL     1       7.140   0.363  19.003  1.00  0.00     0.018 C 
BRANCH  12  13
HETATM   13  C   UNL     1       6.119  -0.172  18.547  1.00  0.00     0.080 C 
BRANCH  13  14
HETATM   14  N   UNL     1       5.683  -0.753  17.662  1.00  0.00    -0.408 N 
HETATM   15  H   UNL     1       5.116  -0.399  17.013  1.00  0.00     0.155 HD
ATOM     16  HN  UNL     1       5.936  -1.738  17.578  1.00  0.00     0.155 HD
ENDBRANCH  13  14
ENDBRANCH  12  13
ENDBRANCH  11  12
ENDBRANCH   1  11
BRANCH   2  17
HETATM   17  C   UNL     1       7.752  -2.038  22.956  1.00  0.00     0.247 C 
HETATM   18  O   UNL     1       6.600  -2.105  23.288  1.00  0.00    -0.268 OA
HETATM   19  N   UNL     1       8.816  -2.477  23.697  1.00  0.00    -0.318 N 
ATOM     20  HN  UNL     1       9.774  -2.245  23.432  1.00  0.00     0.169 HD
BRANCH  19  21
HETATM   21  C   UNL     1       8.570  -3.185  24.728  1.00  0.00     0.078 A 
HETATM   22  S   UNL     1       8.345  -4.859  24.590  1.00  0.00    -0.055 SA
HETATM   23  C   UNL     1       8.153  -5.017  26.304  1.00  0.00     0.069 A 
HETATM   24  C   UNL     1       8.210  -3.730  26.693  1.00  0.00     0.039 A 
HETATM   25  C   UNL     1       8.454  -2.683  26.043  1.00  0.00     0.040 A 
BRANCH  23  26
HETATM   26  N   UNL     1       8.137  -5.988  26.483  1.00  0.00    -0.393 N 
ATOM     27  HN2 UNL     1       8.318  -6.805  27.065  1.00  0.00     0.156 HD
ATOM     28  HN1 UNL     1       7.883  -6.427  25.597  1.00  0.00     0.156 HD
ENDBRANCH  23  26
ENDBRANCH  19  21
ENDBRANCH   2  17
TORSDOF 10
ENDMDL
MODEL 3
REMARK VINA RESULT:    -6.061      6.472      8.449
REMARK INTER + INTRA:         -10.049
REMARK INTER:                  -9.290
REMARK INTRA:                  -0.759
REMARK UNBOUND:                -0.799
REMARK  10 active torsions:
REMARK  status: ('A' for Active; 'I' for Inactive)
REMARK    1  A    between atoms: S_2  and  N_5 
REMARK    2  A    between atoms: N_5  and  C_7 
REMARK    3  A    between atoms: C_8  and  C_9 
REMARK    4  A    between atoms: C_9  and  C_10 
REMARK    5  A    between atoms: C_10  and  C_11 
REMARK    6  A    between atoms: C_11  and  C_12 
REMARK    7  A    between atoms: C_12  and  N_13 
REMARK    8  A    between atoms: C_16  and  C_17 
REMARK       I    between atoms: C_17  and  N_19 
REMARK    9  A    between atoms: N_19  and  C_21 
REMARK   10  A    between atoms: N_23  and  C_26 
ROOT
HETATM    1  C   UNL     1       7.533  -4.248  24.754  1.00  0.00     0.024 C 
HETATM    2  C   UNL     1       7.839  -3.017  24.724  1.00  0.00     0.095 C 
ENDROOT
BRANCH   1   3
HETATM    3  C   UNL     1       7.424  -4.844  25.939  1.00  0.00    -0.043 C 
HETATM    4  C   UNL     1       7.341  -5.462  26.840  1.00  0.00     0.028 C 
BRANCH   4   5
HETATM    5  N   UNL     1       7.524  -6.150  27.827  1.00  0.00    -0.223 N 
ATOM      6  HN  UNL     1       8.433  -6.603  27.917  1.00  0.00     0.192 HD
BRANCH   5   7
HETATM    7  S   UNL     1       6.445  -6.409  29.011  1.00  0.00     0.216 S 
HETATM    8  O   UNL     1       5.130  -6.558  28.302  1.00  0.00    -0.577 OA
HETATM    9  O   UNL     1       6.801  -7.665  29.679  1.00  0.00    -0.577 OA
HETATM   10  O   UNL     1       6.434  -5.321  29.953  1.00  0.00    -0.577 OA
ENDBRANCH   5   7
ENDBRANCH   4   5
ENDBRANCH   1   3
BRANCH   1  11
HETATM   11  C   UNL     1       7.537  -4.880  23.515  1.00  0.00     0.022 C 
BRANCH  11  12
HETATM   12  C   UNL     1       7.362  -4.701  22.274  1.00  0.00     0.018 C 
BRANCH  12  13
HETATM   13  C   UNL     1       6.818  -5.722  21.830  1.00  0.00     0.080 C 
BRANCH  13  14
HETATM   14  N   UNL     1       6.001  -6.503  22.016  1.00  0.00    -0.408 N 
HETATM   15  H   UNL     1       5.153  -6.322  22.355  1.00  0.00     0.155 HD
ATOM     16  HN  UNL     1       6.221  -7.474  21.793  1.00  0.00     0.155 HD
ENDBRANCH  13  14
ENDBRANCH  12  13
ENDBRANCH  11  12
ENDBRANCH   1  11
BRANCH   2  17
HETATM   17  C   UNL     1       8.693  -1.982  24.905  1.00  0.00     0.247 C 
HETATM   18  O   UNL     1       8.844  -1.468  25.980  1.00  0.00    -0.268 OA
HETATM   19  N   UNL     1       9.245  -1.543  23.732  1.00  0.00    -0.318 N 
ATOM     20  HN  UNL     1       8.949  -1.925  22.834  1.00  0.00     0.169 HD
BRANCH  19  21
HETATM   21  C   UNL     1      10.142  -0.639  23.800  1.00  0.00     0.078 A 
HETATM   22  S   UNL     1       9.745   0.990  23.549  1.00  0.00    -0.055 SA
HETATM   23  C   UNL     1      11.376   1.479  23.866  1.00  0.00     0.069 A 
HETATM   24  C   UNL     1      11.980   0.287  24.030  1.00  0.00     0.039 A 
HETATM   25  C   UNL     1      11.508  -0.877  24.071  1.00  0.00     0.040 A 
BRANCH  23  26
HETATM   26  N   UNL     1      11.356   2.465  23.907  1.00  0.00    -0.393 N 
ATOM     27  HN2 UNL     1      11.482   3.356  24.387  1.00  0.00     0.156 HD
ATOM     28  HN1 UNL     1      10.889   2.766  23.051  1.00  0.00     0.156 HD
ENDBRANCH  23  26
ENDBRANCH  19  21
ENDBRANCH   2  17
TORSDOF 10
ENDMDL
MODEL 4
REMARK VINA RESULT:    -5.926      3.686      6.743
REMARK INTER + INTRA:          -9.843
REMARK INTER:                  -9.061
REMARK INTRA:                  -0.782
REMARK UNBOUND:                -0.799
REMARK  10 active torsions:
REMARK  status: ('A' for Active; 'I' for Inactive)
REMARK    1  A    between atoms: S_2  and  N_5 
REMARK    2  A    between atoms: N_5  and  C_7 
REMARK    3  A    between atoms: C_8  and  C_9 
REMARK    4  A    between atoms: C_9  and  C_10 
REMARK    5  A    between atoms: C_10  and  C_11 
REMARK    6  A    between atoms: C_11  and  C_12 
REMARK    7  A    between atoms: C_12  and  N_13 
REMARK    8  A    between atoms: C_16  and  C_17 
REMARK       I    between atoms: C_17  and  N_19 
REMARK    9  A    between atoms: N_19  and  C_21 
REMARK   10  A    between atoms: N_23  and  C_26 
ROOT
HETATM    1  C   UNL     1       9.356  -1.842  22.842  1.00  0.00     0.024 C 
HETATM    2  C   UNL     1       9.176  -1.156  21.790  1.00  0.00     0.095 C 
ENDROOT
BRANCH   1   3
HETATM    3  C   UNL     1       8.567  -2.893  23.054  1.00  0.00    -0.043 C 
HETATM    4  C   UNL     1       7.897  -3.702  23.364  1.00  0.00     0.028 C 
BRANCH   4   5
HETATM    5  N   UNL     1       6.956  -4.426  23.630  1.00  0.00    -0.223 N 
ATOM      6  HN  UNL     1       6.649  -4.453  24.602  1.00  0.00     0.192 HD
BRANCH   5   7
HETATM    7  S   UNL     1       6.147  -5.353  22.571  1.00  0.00     0.216 S 
HETATM    8  O   UNL     1       7.208  -6.170  21.893  1.00  0.00    -0.577 OA
HETATM    9  O   UNL     1       5.247  -6.226  23.331  1.00  0.00    -0.577 OA
HETATM   10  O   UNL     1       5.403  -4.548  21.637  1.00  0.00    -0.577 OA
ENDBRANCH   5   7
ENDBRANCH   4   5
ENDBRANCH   1   3
BRANCH   1  11
HETATM   11  C   UNL     1      10.248  -1.288  23.754  1.00  0.00     0.022 C 
BRANCH  11  12
HETATM   12  C   UNL     1      10.939  -0.260  24.015  1.00  0.00     0.018 C 
BRANCH  12  13
HETATM   13  C   UNL     1      10.389   0.318  24.964  1.00  0.00     0.080 C 
BRANCH  13  14
HETATM   14  N   UNL     1       9.894   0.175  25.985  1.00  0.00    -0.408 N 
HETATM   15  H   UNL     1      10.326  -0.122  26.755  1.00  0.00     0.155 HD
ATOM     16  HN  UNL     1       8.899   0.390  26.058  1.00  0.00     0.155 HD
ENDBRANCH  13  14
ENDBRANCH  12  13
ENDBRANCH  11  12
ENDBRANCH   1  11
BRANCH   2  17
HETATM   17  C   UNL     1       8.464  -0.307  21.011  1.00  0.00     0.247 C 
HETATM   18  O   UNL     1       8.900   0.760  20.677  1.00  0.00    -0.268 OA
HETATM   19  N   UNL     1       7.194  -0.757  20.766  1.00  0.00    -0.318 N 
ATOM     20  HN  UNL     1       6.838  -1.601  21.214  1.00  0.00     0.169 HD
BRANCH  19  21
HETATM   21  C   UNL     1       6.473  -0.085  19.958  1.00  0.00     0.078 A 
HETATM   22  S   UNL     1       5.546   1.222  20.513  1.00  0.00    -0.055 SA
HETATM   23  C   UNL     1       4.995   1.566  18.907  1.00  0.00     0.069 A 
HETATM   24  C   UNL     1       5.554   0.555  18.216  1.00  0.00     0.039 A 
HETATM   25  C   UNL     1       6.357  -0.342  18.573  1.00  0.00     0.040 A 
BRANCH  23  26
HETATM   26  N   UNL     1       4.512   2.425  18.969  1.00  0.00    -0.393 N 
ATOM     27  HN2 UNL     1       4.404   3.421  18.775  1.00  0.00     0.156 HD
ATOM     28  HN1 UNL     1       3.767   2.274  19.649  1.00  0.00     0.156 HD
ENDBRANCH  23  26
ENDBRANCH  19  21
ENDBRANCH   2  17
TORSDOF 10
ENDMDL
MODEL 5
REMARK VINA RESULT:    -5.798     14.113     16.601
REMARK INTER + INTRA:          -9.648
REMARK INTER:                  -8.893
REMARK INTRA:                  -0.755
REMARK UNBOUND:                -0.799
REMARK  10 active torsions:
REMARK  status: ('A' for Active; 'I' for Inactive)
REMARK    1  A    between atoms: S_2  and  N_5 
REMARK    2  A    between atoms: N_5  and  C_7 
REMARK    3  A    between atoms: C_8  and  C_9 
REMARK    4  A    between atoms: C_9  and  C_10 
REMARK    5  A    between atoms: C_10  and  C_11 
REMARK    6  A    between atoms: C_11  and  C_12 
REMARK    7  A    between atoms: C_12  and  N_13 
REMARK    8  A    between atoms: C_16  and  C_17 
REMARK       I    between atoms: C_17  and  N_19 
REMARK    9  A    between atoms: N_19  and  C_21 
REMARK   10  A    between atoms: N_23  and  C_26 
ROOT
HETATM    1  C   UNL     1      23.656  -2.130  23.630  1.00  0.00     0.024 C 
HETATM    2  C   UNL     1      23.998  -2.041  22.412  1.00  0.00     0.095 C 
ENDROOT
BRANCH   1   3
HETATM    3  C   UNL     1      23.677  -3.328  24.207  1.00  0.00    -0.043 C 
HETATM    4  C   UNL     1      23.554  -4.290  24.717  1.00  0.00     0.028 C 
BRANCH   4   5
HETATM    5  N   UNL     1      23.318  -5.439  25.041  1.00  0.00    -0.223 N 
ATOM      6  HN  UNL     1      22.349  -5.673  25.258  1.00  0.00     0.192 HD
BRANCH   5   7
HETATM    7  S   UNL     1      24.412  -6.632  25.156  1.00  0.00     0.216 S 
HETATM    8  O   UNL     1      24.236  -7.177  26.544  1.00  0.00    -0.577 OA
HETATM    9  O   UNL     1      24.068  -7.657  24.165  1.00  0.00    -0.577 OA
HETATM   10  O   UNL     1      25.746  -6.139  24.932  1.00  0.00    -0.577 OA
ENDBRANCH   5   7
ENDBRANCH   4   5
ENDBRANCH   1   3
BRANCH   1  11
HETATM   11  C   UNL     1      23.108  -0.969  24.167  1.00  0.00     0.022 C 
BRANCH  11  12
HETATM   12  C   UNL     1      22.148  -0.513  24.854  1.00  0.00     0.018 C 
BRANCH  12  13
HETATM   13  C   UNL     1      21.100  -0.840  24.279  1.00  0.00     0.080 C 
BRANCH  13  14
HETATM   14  N   UNL     1      20.186  -1.529  24.319  1.00  0.00    -0.408 N 
HETATM   15  H   UNL     1      19.330  -1.304  24.030  1.00  0.00     0.155 HD
ATOM     16  HN  UNL     1      20.321  -2.464  24.703  1.00  0.00     0.155 HD
ENDBRANCH  13  14
ENDBRANCH  12  13
ENDBRANCH  11  12
ENDBRANCH   1  11
BRANCH   2  17
HETATM   17  C   UNL     1      23.817  -2.268  21.089  1.00  0.00     0.247 C 
HETATM   18  O   UNL     1      23.544  -3.357  20.666  1.00  0.00    -0.268 OA
HETATM   19  N   UNL     1      24.092  -1.167  20.323  1.00  0.00    -0.318 N 
ATOM     20  HN  UNL     1      24.473  -0.317  20.738  1.00  0.00     0.169 HD
BRANCH  19  21
HETATM   21  C   UNL     1      23.855  -1.240  19.072  1.00  0.00     0.078 A 
HETATM   22  S   UNL     1      25.073  -1.711  17.991  1.00  0.00    -0.055 SA
HETATM   23  C   UNL     1      23.977  -1.617  16.652  1.00  0.00     0.069 A 
HETATM   24  C   UNL     1      22.868  -1.151  17.254  1.00  0.00     0.039 A 
HETATM   25  C   UNL     1      22.614  -0.944  18.467  1.00  0.00     0.040 A 
BRANCH  23  26
HETATM   26  N   UNL     1      24.464  -1.998  15.882  1.00  0.00    -0.393 N 
ATOM     27  HN2 UNL     1      25.277  -2.076  15.272  1.00  0.00     0.156 HD
ATOM     28  HN1 UNL     1      23.777  -2.550  15.368  1.00  0.00     0.156 HD
ENDBRANCH  23  26
ENDBRANCH  19  21
ENDBRANCH   2  17
TORSDOF 10
ENDMDL
MODEL 6
REMARK VINA RESULT:    -5.683      4.543      6.179
REMARK INTER + INTRA:          -9.472
REMARK INTER:                  -8.819
REMARK INTRA:                  -0.652
REMARK UNBOUND:                -0.799
REMARK  10 active torsions:
REMARK  status: ('A' for Active; 'I' for Inactive)
REMARK    1  A    between atoms: S_2  and  N_5 
REMARK    2  A    between atoms: N_5  and  C_7 
REMARK    3  A    between atoms: C_8  and  C_9 
REMARK    4  A    between atoms: C_9  and  C_10 
REMARK    5  A    between atoms: C_10  and  C_11 
REMARK    6  A    between atoms: C_11  and  C_12 
REMARK    7  A    between atoms: C_12  and  N_13 
REMARK    8  A    between atoms: C_16  and  C_17 
REMARK       I    between atoms: C_17  and  N_19 
REMARK    9  A    between atoms: N_19  and  C_21 
REMARK   10  A    between atoms: N_23  and  C_26 
ROOT
HETATM    1  C   UNL     1       9.039  -0.731  22.149  1.00  0.00     0.024 C 
HETATM    2  C   UNL     1       8.365  -1.463  22.937  1.00  0.00     0.095 C 
ENDROOT
BRANCH   1   3
HETATM    3  C   UNL     1       8.471  -0.333  21.014  1.00  0.00    -0.043 C 
HETATM    4  C   UNL     1       8.135  -0.026  20.017  1.00  0.00     0.028 C 
BRANCH   4   5
HETATM    5  N   UNL     1       7.730   0.046  18.872  1.00  0.00    -0.223 N 
ATOM      6  HN  UNL     1       8.422  -0.034  18.127  1.00  0.00     0.192 HD
BRANCH   5   7
HETATM    7  S   UNL     1       6.183   0.257  18.429  1.00  0.00     0.216 S 
HETATM    8  O   UNL     1       5.821  -1.003  17.697  1.00  0.00    -0.577 OA
HETATM    9  O   UNL     1       5.378   0.380  19.648  1.00  0.00    -0.577 OA
HETATM   10  O   UNL     1       6.033   1.426  17.603  1.00  0.00    -0.577 OA
ENDBRANCH   5   7
ENDBRANCH   4   5
ENDBRANCH   1   3
BRANCH   1  11
HETATM   11  C   UNL     1      10.381  -0.590  22.489  1.00  0.00     0.022 C 
BRANCH  11  12
HETATM   12  C   UNL     1      11.436  -1.227  22.778  1.00  0.00     0.018 C 
BRANCH  12  13
HETATM   13  C   UNL     1      12.097  -0.511  23.543  1.00  0.00     0.080 C 
BRANCH  13  14
HETATM   14  N   UNL     1      12.997  -0.479  24.250  1.00  0.00    -0.408 N 
HETATM   15  H   UNL     1      13.845  -0.813  24.057  1.00  0.00     0.155 HD
ATOM     16  HN  UNL     1      12.859  -0.051  25.166  1.00  0.00     0.155 HD
ENDBRANCH  13  14
ENDBRANCH  12  13
ENDBRANCH  11  12
ENDBRANCH   1  11
BRANCH   2  17
HETATM   17  C   UNL     1       7.748  -2.619  23.277  1.00  0.00     0.247 C 
HETATM   18  O   UNL     1       7.696  -2.996  24.415  1.00  0.00    -0.268 OA
HETATM   19  N   UNL     1       7.314  -3.325  22.187  1.00  0.00    -0.318 N 
ATOM     20  HN  UNL     1       7.533  -3.020  21.239  1.00  0.00     0.169 HD
BRANCH  19  21
HETATM   21  C   UNL     1       6.628  -4.379  22.398  1.00  0.00     0.078 A 
HETATM   22  S   UNL     1       5.006  -4.270  22.878  1.00  0.00    -0.055 SA
HETATM   23  C   UNL     1       4.844  -5.995  22.868  1.00  0.00     0.069 A 
HETATM   24  C   UNL     1       6.102  -6.374  22.577  1.00  0.00     0.039 A 
HETATM   25  C   UNL     1       7.116  -5.699  22.270  1.00  0.00     0.040 A 
BRANCH  23  26
HETATM   26  N   UNL     1       3.882  -6.173  23.000  1.00  0.00    -0.393 N 
ATOM     27  HN2 UNL     1       2.964  -6.476  22.677  1.00  0.00     0.156 HD
ATOM     28  HN1 UNL     1       3.650  -5.773  23.910  1.00  0.00     0.156 HD
ENDBRANCH  23  26
ENDBRANCH  19  21
ENDBRANCH   2  17
TORSDOF 10
ENDMDL
MODEL 7
REMARK VINA RESULT:    -5.670      4.414      6.422
REMARK INTER + INTRA:          -9.452
REMARK INTER:                  -8.568
REMARK INTRA:                  -0.883
REMARK UNBOUND:                -0.799
REMARK  10 active torsions:
REMARK  status: ('A' for Active; 'I' for Inactive)
REMARK    1  A    between atoms: S_2  and  N_5 
REMARK    2  A    between atoms: N_5  and  C_7 
REMARK    3  A    between atoms: C_8  and  C_9 
REMARK    4  A    between atoms: C_9  and  C_10 
REMARK    5  A    between atoms: C_10  and  C_11 
REMARK    6  A    between atoms: C_11  and  C_12 
REMARK    7  A    between atoms: C_12  and  N_13 
REMARK    8  A    between atoms: C_16  and  C_17 
REMARK       I    between atoms: C_17  and  N_19 
REMARK    9  A    between atoms: N_19  and  C_21 
REMARK   10  A    between atoms: N_23  and  C_26 
ROOT
HETATM    1  C   UNL     1       7.251  -0.439  20.746  1.00  0.00     0.024 C 
HETATM    2  C   UNL     1       6.717  -1.562  20.998  1.00  0.00     0.095 C 
ENDROOT
BRANCH   1   3
HETATM    3  C   UNL     1       8.508  -0.235  21.132  1.00  0.00    -0.043 C 
HETATM    4  C   UNL     1       9.485  -0.014  21.575  1.00  0.00     0.028 C 
BRANCH   4   5
HETATM    5  N   UNL     1      10.538  -0.014  22.185  1.00  0.00    -0.223 N 
ATOM      6  HN  UNL     1      11.116   0.823  22.117  1.00  0.00     0.192 HD
BRANCH   5   7
HETATM    7  S   UNL     1      11.101  -1.231  23.100  1.00  0.00     0.216 S 
HETATM    8  O   UNL     1      11.429  -0.595  24.419  1.00  0.00    -0.577 OA
HETATM    9  O   UNL     1      10.018  -2.206  23.267  1.00  0.00    -0.577 OA
HETATM   10  O   UNL     1      12.250  -1.849  22.494  1.00  0.00    -0.577 OA
ENDBRANCH   5   7
ENDBRANCH   4   5
ENDBRANCH   1   3
BRANCH   1  11
HETATM   11  C   UNL     1       6.376   0.526  20.256  1.00  0.00     0.022 C 
BRANCH  11  12
HETATM   12  C   UNL     1       5.298   0.699  19.615  1.00  0.00     0.018 C 
BRANCH  12  13
HETATM   13  C   UNL     1       5.537   0.449  18.425  1.00  0.00     0.080 C 
BRANCH  13  14
HETATM   14  N   UNL     1       5.647  -0.386  17.649  1.00  0.00    -0.408 N 
HETATM   15  H   UNL     1       6.399  -0.530  17.118  1.00  0.00     0.155 HD
ATOM     16  HN  UNL     1       4.859  -1.023  17.530  1.00  0.00     0.155 HD
ENDBRANCH  13  14
ENDBRANCH  12  13
ENDBRANCH  11  12
ENDBRANCH   1  11
BRANCH   2  17
HETATM   17  C   UNL     1       6.216  -2.497  21.839  1.00  0.00     0.247 C 
HETATM   18  O   UNL     1       5.249  -3.149  21.555  1.00  0.00    -0.268 OA
HETATM   19  N   UNL     1       6.857  -2.516  23.049  1.00  0.00    -0.318 N 
ATOM     20  HN  UNL     1       7.570  -1.823  23.279  1.00  0.00     0.169 HD
BRANCH  19  21
HETATM   21  C   UNL     1       6.533  -3.428  23.878  1.00  0.00     0.078 A 
HETATM   22  S   UNL     1       5.347  -3.141  25.055  1.00  0.00    -0.055 SA
HETATM   23  C   UNL     1       5.475  -4.767  25.640  1.00  0.00     0.069 A 
HETATM   24  C   UNL     1       6.480  -5.240  24.880  1.00  0.00     0.039 A 
HETATM   25  C   UNL     1       7.101  -4.722  23.919  1.00  0.00     0.040 A 
BRANCH  23  26
HETATM   26  N   UNL     1       4.737  -4.877  26.286  1.00  0.00    -0.393 N 
ATOM     27  HN2 UNL     1       4.089  -5.442  26.834  1.00  0.00     0.156 HD
ATOM     28  HN1 UNL     1       4.357  -3.942  26.432  1.00  0.00     0.156 HD
ENDBRANCH  23  26
ENDBRANCH  19  21
ENDBRANCH   2  17
TORSDOF 10
ENDMDL
MODEL 8
REMARK VINA RESULT:    -5.571      5.276      6.609
REMARK INTER + INTRA:          -9.302
REMARK INTER:                  -8.560
REMARK INTRA:                  -0.742
REMARK UNBOUND:                -0.799
REMARK  10 active torsions:
REMARK  status: ('A' for Active; 'I' for Inactive)
REMARK    1  A    between atoms: S_2  and  N_5 
REMARK    2  A    between atoms: N_5  and  C_7 
REMARK    3  A    between atoms: C_8  and  C_9 
REMARK    4  A    between atoms: C_9  and  C_10 
REMARK    5  A    between atoms: C_10  and  C_11 
REMARK    6  A    between atoms: C_11  and  C_12 
REMARK    7  A    between atoms: C_12  and  N_13 
REMARK    8  A    between atoms: C_16  and  C_17 
REMARK       I    between atoms: C_17  and  N_19 
REMARK    9  A    between atoms: N_19  and  C_21 
REMARK   10  A    between atoms: N_23  and  C_26 
ROOT
HETATM    1  C   UNL     1       8.172  -1.479  22.908  1.00  0.00     0.024 C 
HETATM    2  C   UNL     1       7.819  -2.371  23.737  1.00  0.00     0.095 C 
ENDROOT
BRANCH   1   3
HETATM    3  C   UNL     1       7.271  -1.033  22.036  1.00  0.00    -0.043 C 
HETATM    4  C   UNL     1       6.631  -0.694  21.214  1.00  0.00     0.028 C 
BRANCH   4   5
HETATM    5  N   UNL     1       5.860  -0.584  20.279  1.00  0.00    -0.223 N 
ATOM      6  HN  UNL     1       4.907  -0.920  20.418  1.00  0.00     0.192 HD
BRANCH   5   7
HETATM    7  S   UNL     1       6.218   0.053  18.829  1.00  0.00     0.216 S 
HETATM    8  O   UNL     1       7.704   0.260  18.862  1.00  0.00    -0.577 OA
HETATM    9  O   UNL     1       5.870  -0.937  17.805  1.00  0.00    -0.577 OA
HETATM   10  O   UNL     1       5.503   1.283  18.610  1.00  0.00    -0.577 OA
ENDBRANCH   5   7
ENDBRANCH   4   5
ENDBRANCH   1   3
BRANCH   1  11
HETATM   11  C   UNL     1       9.537  -1.208  22.889  1.00  0.00     0.022 C 
BRANCH  11  12
HETATM   12  C   UNL     1      10.656  -1.618  22.464  1.00  0.00     0.018 C 
BRANCH  12  13
HETATM   13  C   UNL     1      11.505  -1.311  23.313  1.00  0.00     0.080 C 
BRANCH  13  14
HETATM   14  N   UNL     1      11.767  -0.573  24.148  1.00  0.00    -0.408 N 
HETATM   15  H   UNL     1      11.192  -0.307  24.831  1.00  0.00     0.155 HD
ATOM     16  HN  UNL     1      12.707  -0.175  24.144  1.00  0.00     0.155 HD
ENDBRANCH  13  14
ENDBRANCH  12  13
ENDBRANCH  11  12
ENDBRANCH   1  11
BRANCH   2  17
HETATM   17  C   UNL     1       7.431  -3.626  24.066  1.00  0.00     0.247 C 
HETATM   18  O   UNL     1       8.183  -4.558  23.995  1.00  0.00    -0.268 OA
HETATM   19  N   UNL     1       6.096  -3.704  24.362  1.00  0.00    -0.318 N 
ATOM     20  HN  UNL     1       5.482  -2.898  24.247  1.00  0.00     0.169 HD
BRANCH  19  21
HETATM   21  C   UNL     1       5.647  -4.820  24.784  1.00  0.00     0.078 A 
HETATM   22  S   UNL     1       5.764  -5.230  26.425  1.00  0.00    -0.055 SA
HETATM   23  C   UNL     1       4.928  -6.723  26.154  1.00  0.00     0.069 A 
HETATM   24  C   UNL     1       4.772  -6.696  24.817  1.00  0.00     0.039 A 
HETATM   25  C   UNL     1       5.034  -5.802  23.975  1.00  0.00     0.040 A 
BRANCH  23  26
HETATM   26  N   UNL     1       4.754  -7.098  27.050  1.00  0.00    -0.393 N 
ATOM     27  HN2 UNL     1       4.782  -7.848  27.740  1.00  0.00     0.156 HD
ATOM     28  HN1 UNL     1       4.164  -6.414  27.525  1.00  0.00     0.156 HD
ENDBRANCH  23  26
ENDBRANCH  19  21
ENDBRANCH   2  17
TORSDOF 10
ENDMDL
MODEL 9
REMARK VINA RESULT:    -5.537      4.350      6.311
REMARK INTER + INTRA:          -9.249
REMARK INTER:                  -8.525
REMARK INTRA:                  -0.723
REMARK UNBOUND:                -0.799
REMARK  10 active torsions:
REMARK  status: ('A' for Active; 'I' for Inactive)
REMARK    1  A    between atoms: S_2  and  N_5 
REMARK    2  A    between atoms: N_5  and  C_7 
REMARK    3  A    between atoms: C_8  and  C_9 
REMARK    4  A    between atoms: C_9  and  C_10 
REMARK    5  A    between atoms: C_10  and  C_11 
REMARK    6  A    between atoms: C_11  and  C_12 
REMARK    7  A    between atoms: C_12  and  N_13 
REMARK    8  A    between atoms: C_16  and  C_17 
REMARK       I    between atoms: C_17  and  N_19 
REMARK    9  A    between atoms: N_19  and  C_21 
REMARK   10  A    between atoms: N_23  and  C_26 
ROOT
HETATM    1  C   UNL     1       7.992   0.098  20.850  1.00  0.00     0.024 C 
HETATM    2  C   UNL     1       7.698  -1.045  21.315  1.00  0.00     0.095 C 
ENDROOT
BRANCH   1   3
HETATM    3  C   UNL     1       8.950   0.799  21.451  1.00  0.00    -0.043 C 
HETATM    4  C   UNL     1       9.791   1.401  21.810  1.00  0.00     0.028 C 
BRANCH   4   5
HETATM    5  N   UNL     1      10.558   2.281  22.157  1.00  0.00    -0.223 N 
ATOM      6  HN  UNL     1      10.950   2.872  21.425  1.00  0.00     0.192 HD
BRANCH   5   7
HETATM    7  S   UNL     1      11.009   2.593  23.685  1.00  0.00     0.216 S 
HETATM    8  O   UNL     1       9.720   2.745  24.439  1.00  0.00    -0.577 OA
HETATM    9  O   UNL     1      11.749   1.428  24.183  1.00  0.00    -0.577 OA
HETATM   10  O   UNL     1      11.822   3.778  23.756  1.00  0.00    -0.577 OA
ENDBRANCH   5   7
ENDBRANCH   4   5
ENDBRANCH   1   3
BRANCH   1  11
HETATM   11  C   UNL     1       7.128   0.565  19.864  1.00  0.00     0.022 C 
BRANCH  11  12
HETATM   12  C   UNL     1       6.375   0.211  18.910  1.00  0.00     0.018 C 
BRANCH  12  13
HETATM   13  C   UNL     1       5.389   0.962  18.924  1.00  0.00     0.080 C 
BRANCH  13  14
HETATM   14  N   UNL     1       4.874   1.838  18.397  1.00  0.00    -0.408 N 
HETATM   15  H   UNL     1       4.704   2.670  18.779  1.00  0.00     0.155 HD
ATOM     16  HN  UNL     1       4.577   1.695  17.432  1.00  0.00     0.155 HD
ENDBRANCH  13  14
ENDBRANCH  12  13
ENDBRANCH  11  12
ENDBRANCH   1  11
BRANCH   2  17
HETATM   17  C   UNL     1       7.187  -1.866  22.262  1.00  0.00     0.247 C 
HETATM   18  O   UNL     1       6.511  -1.449  23.162  1.00  0.00    -0.268 OA
HETATM   19  N   UNL     1       7.623  -3.158  22.131  1.00  0.00    -0.318 N 
ATOM     20  HN  UNL     1       8.325  -3.410  21.435  1.00  0.00     0.169 HD
BRANCH  19  21
HETATM   21  C   UNL     1       7.122  -4.035  22.909  1.00  0.00     0.078 A 
HETATM   22  S   UNL     1       5.678  -4.824  22.502  1.00  0.00    -0.055 SA
HETATM   23  C   UNL     1       5.758  -5.798  23.933  1.00  0.00     0.069 A 
HETATM   24  C   UNL     1       6.849  -5.288  24.535  1.00  0.00     0.039 A 
HETATM   25  C   UNL     1       7.678  -4.429  24.147  1.00  0.00     0.040 A 
BRANCH  23  26
HETATM   26  N   UNL     1       5.041  -6.469  23.839  1.00  0.00    -0.393 N 
ATOM     27  HN2 UNL     1       4.691  -7.392  23.582  1.00  0.00     0.156 HD
ATOM     28  HN1 UNL     1       4.169  -5.967  24.009  1.00  0.00     0.156 HD
ENDBRANCH  23  26
ENDBRANCH  19  21
ENDBRANCH   2  17
TORSDOF 10
ENDMDL
