REMARK  6 active torsions:
REMARK  status: ('A' for Active; 'I' for Inactive)
REMARK    1  A    between atoms: C_2  and  C_8 
REMARK    2  A    between atoms: C_2  and  C_20 
REMARK    3  A    between atoms: C_2  and  C_4 
REMARK    4  A    between atoms: C_4  and  O_17 
REMARK    5  A    between atoms: N_6  and  C_8 
REMARK    6  A    between atoms: C_14  and  N_18 
ROOT
HETATM    1  N   UNL     1       9.414  -1.349  22.488  1.00  0.00    -0.324 N 
ATOM      2  HN  UNL     1       9.422  -2.326  22.196  1.00  0.00     0.169 HD
HETATM    3  C   UNL     1       8.306  -0.695  22.341  1.00  0.00     0.116 C 
HETATM    4 CL   UNL     1       8.449   1.050  22.549  1.00  0.00    -0.064 Cl
ENDROOT
BRANCH   3   5
HETATM    5  C   UNL     1       7.067  -1.195  22.086  1.00  0.00     0.037 C 
BRANCH   5   6
HETATM    6  C   UNL     1       6.817  -2.468  21.396  1.00  0.00     0.069 C 
HETATM    7  C   UNL     1       5.674  -2.895  21.314  1.00  0.00    -0.016 C 
BRANCH   6   8
HETATM    8  N   UNL     1       7.808  -3.241  20.736  1.00  0.00    -0.393 N 
HETATM    9  H   UNL     1       7.429  -3.993  20.225  1.00  0.00     0.156 HD
HETATM   10  H   UNL     1       8.733  -2.986  20.945  1.00  0.00     0.156 HD
ENDBRANCH   6   8
ENDBRANCH   5   6
BRANCH   5  11
HETATM   11  C   UNL     1       5.901  -0.379  22.494  1.00  0.00     0.209 C 
BRANCH  11  12
HETATM   12  O   UNL     1       4.694  -1.086  22.730  1.00  0.00    -0.396 OA
HETATM   13  H   UNL     1       5.067  -1.729  23.358  1.00  0.00     0.209 HD
ENDBRANCH  11  12
ENDBRANCH   5  11
ENDBRANCH   3   5
BRANCH   1  14
HETATM   14  C   UNL     1      10.533  -0.857  22.984  1.00  0.00     0.187 A 
HETATM   15  O   UNL     1      10.606   0.361  23.610  1.00  0.00    -0.302 OA
HETATM   16  C   UNL     1      11.753   0.764  24.149  1.00  0.00     0.161 A 
HETATM   17  C   UNL     1      12.867  -0.037  24.069  1.00  0.00     0.114 A 
HETATM   18  N   UNL     1      12.821  -1.223  23.497  1.00  0.00    -0.351 N 
HETATM   19  C   UNL     1      11.718  -1.618  22.924  1.00  0.00     0.155 A 
ATOM     20  HN  UNL     1      13.642  -1.828  23.502  1.00  0.00     0.166 HD
HETATM   21 CL   UNL     1      11.760  -3.125  22.095  1.00  0.00    -0.060 Cl
ENDBRANCH   1  14
TORSDOF 6
