MODEL 1
REMARK VINA RESULT:    -6.641      0.000      0.000
REMARK INTER + INTRA:         -10.349
REMARK INTER:                 -10.135
REMARK INTRA:                  -0.214
REMARK UNBOUND:                -0.214
REMARK  10 active torsions:
REMARK  status: ('A' for Active; 'I' for Inactive)
REMARK    1  A    between atoms: S_2  and  N_5 
REMARK    2  A    between atoms: N_5  and  C_7 
REMARK    3  A    between atoms: C_7  and  C_8 
REMARK    4  A    between atoms: C_8  and  C_9 
REMARK    5  A    between atoms: C_9  and  C_15 
REMARK    6  A    between atoms: C_9  and  C_14 
REMARK    7  A    between atoms: C_9  and  C_10 
REMARK    8  A    between atoms: C_10  and  C_11 
REMARK    9  A    between atoms: C_15  and  C_16 
REMARK       I    between atoms: C_16  and  N_18 
REMARK   10  A    between atoms: N_18  and  C_20 
ROOT
HETATM    1  C   UNL     1      10.304   0.084  24.212  1.00  0.00     0.067 C 
ENDROOT
BRANCH   1   2
HETATM    2  C   UNL     1       9.899  -0.531  23.030  1.00  0.00     0.135 C 
BRANCH   2   3
HETATM    3  C   UNL     1       9.786  -0.644  21.894  1.00  0.00    -0.058 C 
BRANCH   3   4
HETATM    4  N   UNL     1       9.407  -0.460  20.754  1.00  0.00    -0.254 N 
ATOM      5  HN  UNL     1      10.030  -0.760  20.003  1.00  0.00     0.188 HD
BRANCH   4   6
HETATM    6  S   UNL     1       8.022   0.208  20.328  1.00  0.00     0.233 S 
HETATM    7  C   UNL     1       6.785  -0.864  21.073  1.00  0.00     0.186 C 
HETATM    8  O   UNL     1       7.856   1.505  20.932  1.00  0.00    -0.206 OA
HETATM    9  O   UNL     1       7.799   0.219  18.911  1.00  0.00    -0.206 OA
ENDBRANCH   4   6
ENDBRANCH   3   4
ENDBRANCH   2   3
ENDBRANCH   1   2
BRANCH   1  10
HETATM   10  C   UNL     1       9.598  -0.668  24.854  1.00  0.00    -0.064 C 
BRANCH  10  11
HETATM   11  C   UNL     1       8.969  -1.567  25.647  1.00  0.00     0.290 C 
HETATM   12  O   UNL     1       8.692  -1.230  26.722  1.00  0.00    -0.259 OA
HETATM   13  N   UNL     1       8.799  -2.732  25.047  1.00  0.00    -0.315 N 
ATOM     14  HN  UNL     1       9.178  -2.874  24.111  1.00  0.00     0.170 HD
BRANCH  13  15
HETATM   15  C   UNL     1       8.180  -3.664  25.610  1.00  0.00     0.068 A 
HETATM   16  C   UNL     1       8.473  -4.697  26.451  1.00  0.00     0.118 A 
HETATM   17  N   UNL     1       8.283  -5.638  27.100  1.00  0.00    -0.373 N 
HETATM   18  C   UNL     1       6.931  -5.702  26.815  1.00  0.00     0.089 A 
ATOM     19  HN  UNL     1       8.896  -6.214  27.676  1.00  0.00     0.164 HD
HETATM   20  C   UNL     1       6.315  -4.907  26.150  1.00  0.00     0.038 A 
HETATM   21  C   UNL     1       6.673  -3.847  25.427  1.00  0.00     0.040 A 
HETATM   22 BR   UNL     1       5.781  -2.886  24.446  1.00  0.00    -0.049 Br
ENDBRANCH  13  15
ENDBRANCH  10  11
ENDBRANCH   1  10
BRANCH   1  23
HETATM   23  C   UNL     1       9.771   1.674  24.588  1.00  0.00    -0.010 C 
HETATM   24  C   UNL     1       9.587   2.523  24.392  1.00  0.00     0.009 C 
ENDBRANCH   1  23
BRANCH   1  25
HETATM   25  C   UNL     1      11.696   0.373  24.719  1.00  0.00    -0.001 C 
BRANCH  25  26
HETATM   26  C   UNL     1      12.721  -0.205  24.478  1.00  0.00    -0.012 C 
HETATM   27  C   UNL     1      13.342  -0.830  23.905  1.00  0.00     0.011 C 
ENDBRANCH  25  26
ENDBRANCH   1  25
TORSDOF 10
ENDMDL
MODEL 2
REMARK VINA RESULT:    -6.433      3.134      6.068
REMARK INTER + INTRA:         -10.031
REMARK INTER:                  -9.373
REMARK INTRA:                  -0.658
REMARK UNBOUND:                -0.214
REMARK  10 active torsions:
REMARK  status: ('A' for Active; 'I' for Inactive)
REMARK    1  A    between atoms: S_2  and  N_5 
REMARK    2  A    between atoms: N_5  and  C_7 
REMARK    3  A    between atoms: C_7  and  C_8 
REMARK    4  A    between atoms: C_8  and  C_9 
REMARK    5  A    between atoms: C_9  and  C_15 
REMARK    6  A    between atoms: C_9  and  C_14 
REMARK    7  A    between atoms: C_9  and  C_10 
REMARK    8  A    between atoms: C_10  and  C_11 
REMARK    9  A    between atoms: C_15  and  C_16 
REMARK       I    between atoms: C_16  and  N_18 
REMARK   10  A    between atoms: N_18  and  C_20 
ROOT
HETATM    1  C   UNL     1       9.673  -1.391  23.364  1.00  0.00     0.067 C 
ENDROOT
BRANCH   1   2
HETATM    2  C   UNL     1       9.041  -2.616  23.167  1.00  0.00     0.135 C 
BRANCH   2   3
HETATM    3  C   UNL     1       8.243  -3.423  23.339  1.00  0.00    -0.058 C 
BRANCH   3   4
HETATM    4  N   UNL     1       7.518  -4.379  23.151  1.00  0.00    -0.254 N 
ATOM      5  HN  UNL     1       7.851  -5.287  23.476  1.00  0.00     0.188 HD
BRANCH   4   6
HETATM    6  S   UNL     1       6.089  -4.340  22.440  1.00  0.00     0.233 S 
HETATM    7  C   UNL     1       6.094  -5.804  21.394  1.00  0.00     0.186 C 
HETATM    8  O   UNL     1       5.023  -4.522  23.391  1.00  0.00    -0.206 OA
HETATM    9  O   UNL     1       5.896  -3.197  21.596  1.00  0.00    -0.206 OA
ENDBRANCH   4   6
ENDBRANCH   3   4
ENDBRANCH   2   3
ENDBRANCH   1   2
BRANCH   1  10
HETATM   10  C   UNL     1       9.172  -0.962  22.343  1.00  0.00    -0.064 C 
BRANCH  10  11
HETATM   11  C   UNL     1       8.606  -0.318  21.295  1.00  0.00     0.290 C 
HETATM   12  O   UNL     1       9.284   0.382  20.667  1.00  0.00    -0.259 OA
HETATM   13  N   UNL     1       7.317  -0.585  21.182  1.00  0.00    -0.315 N 
ATOM     14  HN  UNL     1       6.863  -1.175  21.879  1.00  0.00     0.170 HD
BRANCH  13  15
HETATM   15  C   UNL     1       6.643  -0.125  20.231  1.00  0.00     0.068 A 
HETATM   16  C   UNL     1       6.298  -0.509  18.969  1.00  0.00     0.118 A 
HETATM   17  N   UNL     1       5.810  -0.435  17.921  1.00  0.00    -0.373 N 
HETATM   18  C   UNL     1       5.252   0.811  18.145  1.00  0.00     0.089 A 
ATOM     19  HN  UNL     1       5.796  -1.064  17.119  1.00  0.00     0.164 HD
HETATM   20  C   UNL     1       5.301   1.428  19.180  1.00  0.00     0.038 A 
HETATM   21  C   UNL     1       5.930   1.224  20.336  1.00  0.00     0.040 A 
HETATM   22 BR   UNL     1       6.045   2.180  21.661  1.00  0.00    -0.049 Br
ENDBRANCH  13  15
ENDBRANCH  10  11
ENDBRANCH   1  10
BRANCH   1  23
HETATM   23  C   UNL     1      11.373  -1.250  23.156  1.00  0.00    -0.010 C 
HETATM   24  C   UNL     1      12.195  -1.575  23.042  1.00  0.00     0.009 C 
ENDBRANCH   1  23
BRANCH   1  25
HETATM   25  C   UNL     1       9.694  -0.504  24.584  1.00  0.00    -0.001 C 
BRANCH  25  26
HETATM   26  C   UNL     1       8.939  -0.489  25.519  1.00  0.00    -0.012 C 
HETATM   27  C   UNL     1       8.641  -0.730  26.497  1.00  0.00     0.011 C 
ENDBRANCH  25  26
ENDBRANCH   1  25
TORSDOF 10
ENDMDL
MODEL 3
REMARK VINA RESULT:    -6.395      2.762      5.765
REMARK INTER + INTRA:          -9.973
REMARK INTER:                  -9.895
REMARK INTRA:                  -0.078
REMARK UNBOUND:                -0.214
REMARK  10 active torsions:
REMARK  status: ('A' for Active; 'I' for Inactive)
REMARK    1  A    between atoms: S_2  and  N_5 
REMARK    2  A    between atoms: N_5  and  C_7 
REMARK    3  A    between atoms: C_7  and  C_8 
REMARK    4  A    between atoms: C_8  and  C_9 
REMARK    5  A    between atoms: C_9  and  C_15 
REMARK    6  A    between atoms: C_9  and  C_14 
REMARK    7  A    between atoms: C_9  and  C_10 
REMARK    8  A    between atoms: C_10  and  C_11 
REMARK    9  A    between atoms: C_15  and  C_16 
REMARK       I    between atoms: C_16  and  N_18 
REMARK   10  A    between atoms: N_18  and  C_20 
ROOT
HETATM    1  C   UNL     1       6.284  -3.484  22.277  1.00  0.00     0.067 C 
ENDROOT
BRANCH   1   2
HETATM    2  C   UNL     1       6.254  -2.403  21.400  1.00  0.00     0.135 C 
BRANCH   2   3
HETATM    3  C   UNL     1       5.766  -1.631  20.706  1.00  0.00    -0.058 C 
BRANCH   3   4
HETATM    4  N   UNL     1       5.523  -0.579  20.148  1.00  0.00    -0.254 N 
ATOM      5  HN  UNL     1       4.837   0.034  20.589  1.00  0.00     0.188 HD
BRANCH   4   6
HETATM    6  S   UNL     1       6.183  -0.073  18.786  1.00  0.00     0.233 S 
HETATM    7  C   UNL     1       5.408   1.526  18.505  1.00  0.00     0.186 C 
HETATM    8  O   UNL     1       7.592   0.179  18.945  1.00  0.00    -0.206 OA
HETATM    9  O   UNL     1       5.889  -0.908  17.657  1.00  0.00    -0.206 OA
ENDBRANCH   4   6
ENDBRANCH   3   4
ENDBRANCH   2   3
ENDBRANCH   1   2
BRANCH   1  10
HETATM   10  C   UNL     1       7.368  -3.126  22.693  1.00  0.00    -0.064 C 
BRANCH  10  11
HETATM   11  C   UNL     1       8.551  -2.853  23.292  1.00  0.00     0.290 C 
HETATM   12  O   UNL     1       8.901  -3.568  24.136  1.00  0.00    -0.259 OA
HETATM   13  N   UNL     1       9.113  -1.756  22.815  1.00  0.00    -0.315 N 
ATOM     14  HN  UNL     1       8.619  -1.203  22.114  1.00  0.00     0.170 HD
BRANCH  13  15
HETATM   15  C   UNL     1      10.242  -1.385  23.209  1.00  0.00     0.068 A 
HETATM   16  C   UNL     1      11.546  -1.658  22.916  1.00  0.00     0.118 A 
HETATM   17  N   UNL     1      12.699  -1.595  22.999  1.00  0.00    -0.373 N 
HETATM   18  C   UNL     1      12.688  -0.666  24.025  1.00  0.00     0.089 A 
ATOM     19  HN  UNL     1      13.455  -2.058  22.496  1.00  0.00     0.164 HD
HETATM   20  C   UNL     1      11.705  -0.151  24.496  1.00  0.00     0.038 A 
HETATM   21  C   UNL     1      10.399  -0.334  24.310  1.00  0.00     0.040 A 
HETATM   22 BR   UNL     1       9.117   0.326  25.086  1.00  0.00    -0.049 Br
ENDBRANCH  13  15
ENDBRANCH  10  11
ENDBRANCH   1  10
BRANCH   1  23
HETATM   23  C   UNL     1       6.507  -5.079  21.679  1.00  0.00    -0.010 C 
HETATM   24  C   UNL     1       6.940  -5.855  21.611  1.00  0.00     0.009 C 
ENDBRANCH   1  23
BRANCH   1  25
HETATM   25  C   UNL     1       5.247  -3.945  23.272  1.00  0.00    -0.001 C 
BRANCH  25  26
HETATM   26  C   UNL     1       4.823  -3.372  24.240  1.00  0.00    -0.012 C 
HETATM   27  C   UNL     1       4.585  -3.288  25.259  1.00  0.00     0.011 C 
ENDBRANCH  25  26
ENDBRANCH   1  25
TORSDOF 10
ENDMDL
MODEL 4
REMARK VINA RESULT:    -6.324      3.160      6.677
REMARK INTER + INTRA:          -9.864
REMARK INTER:                  -9.501
REMARK INTRA:                  -0.364
REMARK UNBOUND:                -0.214
REMARK  10 active torsions:
REMARK  status: ('A' for Active; 'I' for Inactive)
REMARK    1  A    between atoms: S_2  and  N_5 
REMARK    2  A    between atoms: N_5  and  C_7 
REMARK    3  A    between atoms: C_7  and  C_8 
REMARK    4  A    between atoms: C_8  and  C_9 
REMARK    5  A    between atoms: C_9  and  C_15 
REMARK    6  A    between atoms: C_9  and  C_14 
REMARK    7  A    between atoms: C_9  and  C_10 
REMARK    8  A    between atoms: C_10  and  C_11 
REMARK    9  A    between atoms: C_15  and  C_16 
REMARK       I    between atoms: C_16  and  N_18 
REMARK   10  A    between atoms: N_18  and  C_20 
ROOT
HETATM    1  C   UNL     1       9.138  -2.156  23.564  1.00  0.00     0.067 C 
ENDROOT
BRANCH   1   2
HETATM    2  C   UNL     1       8.716  -3.478  23.670  1.00  0.00     0.135 C 
BRANCH   2   3
HETATM    3  C   UNL     1       8.169  -4.368  24.144  1.00  0.00    -0.058 C 
BRANCH   3   4
HETATM    4  N   UNL     1       7.617  -5.071  24.968  1.00  0.00    -0.254 N 
ATOM      5  HN  UNL     1       7.054  -5.846  24.616  1.00  0.00     0.188 HD
BRANCH   4   6
HETATM    6  S   UNL     1       7.694  -4.886  26.551  1.00  0.00     0.233 S 
HETATM    7  C   UNL     1       6.446  -3.636  26.895  1.00  0.00     0.186 C 
HETATM    8  O   UNL     1       7.277  -6.080  27.241  1.00  0.00    -0.206 OA
HETATM    9  O   UNL     1       8.956  -4.386  27.013  1.00  0.00    -0.206 OA
ENDBRANCH   4   6
ENDBRANCH   3   4
ENDBRANCH   2   3
ENDBRANCH   1   2
BRANCH   1  10
HETATM   10  C   UNL     1       8.311  -1.954  22.697  1.00  0.00    -0.064 C 
BRANCH  10  11
HETATM   11  C   UNL     1       7.319  -1.600  21.847  1.00  0.00     0.290 C 
HETATM   12  O   UNL     1       6.292  -2.124  21.975  1.00  0.00    -0.259 OA
HETATM   13  N   UNL     1       7.714  -0.703  20.961  1.00  0.00    -0.315 N 
ATOM     14  HN  UNL     1       8.689  -0.404  20.951  1.00  0.00     0.170 HD
BRANCH  13  15
HETATM   15  C   UNL     1       6.911  -0.213  20.134  1.00  0.00     0.068 A 
HETATM   16  C   UNL     1       6.397  -0.551  18.917  1.00  0.00     0.118 A 
HETATM   17  N   UNL     1       5.766  -0.440  17.951  1.00  0.00    -0.373 N 
HETATM   18  C   UNL     1       5.235   0.787  18.304  1.00  0.00     0.089 A 
ATOM     19  HN  UNL     1       5.646  -1.035  17.133  1.00  0.00     0.164 HD
HETATM   20  C   UNL     1       5.423   1.362  19.347  1.00  0.00     0.038 A 
HETATM   21  C   UNL     1       6.208   1.120  20.395  1.00  0.00     0.040 A 
HETATM   22 BR   UNL     1       6.499   2.022  21.730  1.00  0.00    -0.049 Br
ENDBRANCH  13  15
ENDBRANCH  10  11
ENDBRANCH   1  10
BRANCH   1  23
HETATM   23  C   UNL     1      10.663  -1.786  22.863  1.00  0.00    -0.010 C 
HETATM   24  C   UNL     1      11.538  -1.622  22.892  1.00  0.00     0.009 C 
ENDBRANCH   1  23
BRANCH   1  25
HETATM   25  C   UNL     1       9.321  -1.115  24.642  1.00  0.00    -0.001 C 
BRANCH  25  26
HETATM   26  C   UNL     1       8.687  -0.954  25.650  1.00  0.00    -0.012 C 
HETATM   27  C   UNL     1       8.533  -0.583  26.620  1.00  0.00     0.011 C 
ENDBRANCH  25  26
ENDBRANCH   1  25
TORSDOF 10
ENDMDL
MODEL 5
REMARK VINA RESULT:    -6.019     13.132     16.126
REMARK INTER + INTRA:          -9.400
REMARK INTER:                  -8.860
REMARK INTRA:                  -0.540
REMARK UNBOUND:                -0.214
REMARK  10 active torsions:
REMARK  status: ('A' for Active; 'I' for Inactive)
REMARK    1  A    between atoms: S_2  and  N_5 
REMARK    2  A    between atoms: N_5  and  C_7 
REMARK    3  A    between atoms: C_7  and  C_8 
REMARK    4  A    between atoms: C_8  and  C_9 
REMARK    5  A    between atoms: C_9  and  C_15 
REMARK    6  A    between atoms: C_9  and  C_14 
REMARK    7  A    between atoms: C_9  and  C_10 
REMARK    8  A    between atoms: C_10  and  C_11 
REMARK    9  A    between atoms: C_15  and  C_16 
REMARK       I    between atoms: C_16  and  N_18 
REMARK   10  A    between atoms: N_18  and  C_20 
ROOT
HETATM    1  C   UNL     1      23.297  -1.215  23.746  1.00  0.00     0.067 C 
ENDROOT
BRANCH   1   2
HETATM    2  C   UNL     1      23.794  -2.507  23.896  1.00  0.00     0.135 C 
BRANCH   2   3
HETATM    3  C   UNL     1      23.803  -3.587  24.283  1.00  0.00    -0.058 C 
BRANCH   3   4
HETATM    4  N   UNL     1      23.444  -4.622  24.810  1.00  0.00    -0.254 N 
ATOM      5  HN  UNL     1      22.498  -4.646  25.191  1.00  0.00     0.188 HD
BRANCH   4   6
HETATM    6  S   UNL     1      24.322  -5.946  24.958  1.00  0.00     0.233 S 
HETATM    7  C   UNL     1      25.927  -5.334  25.497  1.00  0.00     0.186 C 
HETATM    8  O   UNL     1      23.830  -6.788  26.018  1.00  0.00    -0.206 OA
HETATM    9  O   UNL     1      24.513  -6.653  23.725  1.00  0.00    -0.206 OA
ENDBRANCH   4   6
ENDBRANCH   3   4
ENDBRANCH   2   3
ENDBRANCH   1   2
BRANCH   1  10
HETATM   10  C   UNL     1      23.152  -1.402  22.555  1.00  0.00    -0.064 C 
BRANCH  10  11
HETATM   11  C   UNL     1      22.808  -1.585  21.258  1.00  0.00     0.290 C 
HETATM   12  O   UNL     1      21.705  -1.865  21.032  1.00  0.00    -0.259 OA
HETATM   13  N   UNL     1      23.836  -1.439  20.442  1.00  0.00    -0.315 N 
ATOM     14  HN  UNL     1      24.763  -1.264  20.828  1.00  0.00     0.170 HD
BRANCH  13  15
HETATM   15  C   UNL     1      23.691  -1.513  19.199  1.00  0.00     0.068 A 
HETATM   16  C   UNL     1      23.243  -0.709  18.193  1.00  0.00     0.118 A 
HETATM   17  N   UNL     1      22.960  -0.399  17.114  1.00  0.00    -0.373 N 
HETATM   18  C   UNL     1      23.318  -1.611  16.551  1.00  0.00     0.089 A 
ATOM     19  HN  UNL     1      22.582   0.462  16.718  1.00  0.00     0.164 HD
HETATM   20  C   UNL     1      23.814  -2.540  17.138  1.00  0.00     0.038 A 
HETATM   21  C   UNL     1      24.077  -2.773  18.423  1.00  0.00     0.040 A 
HETATM   22 BR   UNL     1      24.644  -4.122  19.159  1.00  0.00    -0.049 Br
ENDBRANCH  13  15
ENDBRANCH  10  11
ENDBRANCH   1  10
BRANCH   1  23
HETATM   23  C   UNL     1      24.344   0.139  23.893  1.00  0.00    -0.010 C 
HETATM   24  C   UNL     1      25.143   0.531  23.939  1.00  0.00     0.009 C 
ENDBRANCH   1  23
BRANCH   1  25
HETATM   25  C   UNL     1      22.196  -0.513  24.504  1.00  0.00    -0.001 C 
BRANCH  25  26
HETATM   26  C   UNL     1      21.102  -0.918  24.792  1.00  0.00    -0.012 C 
HETATM   27  C   UNL     1      20.410  -1.421  25.402  1.00  0.00     0.011 C 
ENDBRANCH  25  26
ENDBRANCH   1  25
TORSDOF 10
ENDMDL
MODEL 6
REMARK VINA RESULT:    -6.000      3.166      6.750
REMARK INTER + INTRA:          -9.371
REMARK INTER:                  -9.542
REMARK INTRA:                   0.171
REMARK UNBOUND:                -0.214
REMARK  10 active torsions:
REMARK  status: ('A' for Active; 'I' for Inactive)
REMARK    1  A    between atoms: S_2  and  N_5 
REMARK    2  A    between atoms: N_5  and  C_7 
REMARK    3  A    between atoms: C_7  and  C_8 
REMARK    4  A    between atoms: C_8  and  C_9 
REMARK    5  A    between atoms: C_9  and  C_15 
REMARK    6  A    between atoms: C_9  and  C_14 
REMARK    7  A    between atoms: C_9  and  C_10 
REMARK    8  A    between atoms: C_10  and  C_11 
REMARK    9  A    between atoms: C_15  and  C_16 
REMARK       I    between atoms: C_16  and  N_18 
REMARK   10  A    between atoms: N_18  and  C_20 
ROOT
HETATM    1  C   UNL     1       7.480  -3.250  23.543  1.00  0.00     0.067 C 
ENDROOT
BRANCH   1   2
HETATM    2  C   UNL     1       8.391  -2.214  23.733  1.00  0.00     0.135 C 
BRANCH   2   3
HETATM    3  C   UNL     1       9.428  -1.725  23.768  1.00  0.00    -0.058 C 
BRANCH   3   4
HETATM    4  N   UNL     1      10.629  -1.587  23.889  1.00  0.00    -0.254 N 
ATOM      5  HN  UNL     1      11.210  -2.412  23.741  1.00  0.00     0.188 HD
BRANCH   4   6
HETATM    6  S   UNL     1      11.378  -0.227  24.260  1.00  0.00     0.233 S 
HETATM    7  C   UNL     1      10.906   0.894  22.934  1.00  0.00     0.186 C 
HETATM    8  O   UNL     1      10.863   0.342  25.478  1.00  0.00    -0.206 OA
HETATM    9  O   UNL     1      12.808  -0.336  24.255  1.00  0.00    -0.206 OA
ENDBRANCH   4   6
ENDBRANCH   3   4
ENDBRANCH   2   3
ENDBRANCH   1   2
BRANCH   1  10
HETATM   10  C   UNL     1       7.014  -2.674  22.581  1.00  0.00    -0.064 C 
BRANCH  10  11
HETATM   11  C   UNL     1       6.369  -2.171  21.502  1.00  0.00     0.290 C 
HETATM   12  O   UNL     1       5.461  -2.766  21.095  1.00  0.00    -0.259 OA
HETATM   13  N   UNL     1       6.926  -1.057  21.060  1.00  0.00    -0.315 N 
ATOM     14  HN  UNL     1       7.778  -0.712  21.503  1.00  0.00     0.170 HD
BRANCH  13  15
HETATM   15  C   UNL     1       6.426  -0.418  20.105  1.00  0.00     0.068 A 
HETATM   16  C   UNL     1       6.074  -0.663  18.811  1.00  0.00     0.118 A 
HETATM   17  N   UNL     1       5.672  -0.437  17.748  1.00  0.00    -0.373 N 
HETATM   18  C   UNL     1       5.395   0.892  18.012  1.00  0.00     0.089 A 
ATOM     19  HN  UNL     1       5.562  -1.014  16.914  1.00  0.00     0.164 HD
HETATM   20  C   UNL     1       5.524   1.439  19.079  1.00  0.00     0.038 A 
HETATM   21  C   UNL     1       6.027   1.051  20.249  1.00  0.00     0.040 A 
HETATM   22 BR   UNL     1       6.280   1.902  21.626  1.00  0.00    -0.049 Br
ENDBRANCH  13  15
ENDBRANCH  10  11
ENDBRANCH   1  10
BRANCH   1  23
HETATM   23  C   UNL     1       6.178  -3.471  24.642  1.00  0.00    -0.010 C 
HETATM   24  C   UNL     1       5.775  -3.387  25.433  1.00  0.00     0.009 C 
ENDBRANCH   1  23
BRANCH   1  25
HETATM   25  C   UNL     1       7.720  -4.737  23.446  1.00  0.00    -0.001 C 
BRANCH  25  26
HETATM   26  C   UNL     1       7.468  -5.484  22.539  1.00  0.00    -0.012 C 
HETATM   27  C   UNL     1       6.824  -6.047  21.929  1.00  0.00     0.011 C 
ENDBRANCH  25  26
ENDBRANCH   1  25
TORSDOF 10
ENDMDL
MODEL 7
REMARK VINA RESULT:    -5.943      3.554      7.300
REMARK INTER + INTRA:          -9.284
REMARK INTER:                  -9.107
REMARK INTRA:                  -0.176
REMARK UNBOUND:                -0.214
REMARK  10 active torsions:
REMARK  status: ('A' for Active; 'I' for Inactive)
REMARK    1  A    between atoms: S_2  and  N_5 
REMARK    2  A    between atoms: N_5  and  C_7 
REMARK    3  A    between atoms: C_7  and  C_8 
REMARK    4  A    between atoms: C_8  and  C_9 
REMARK    5  A    between atoms: C_9  and  C_15 
REMARK    6  A    between atoms: C_9  and  C_14 
REMARK    7  A    between atoms: C_9  and  C_10 
REMARK    8  A    between atoms: C_10  and  C_11 
REMARK    9  A    between atoms: C_15  and  C_16 
REMARK       I    between atoms: C_16  and  N_18 
REMARK   10  A    between atoms: N_18  and  C_20 
ROOT
HETATM    1  C   UNL     1       6.586  -4.338  24.586  1.00  0.00     0.067 C 
ENDROOT
BRANCH   1   2
HETATM    2  C   UNL     1       7.359  -4.682  25.692  1.00  0.00     0.135 C 
BRANCH   2   3
HETATM    3  C   UNL     1       7.719  -5.353  26.550  1.00  0.00    -0.058 C 
BRANCH   3   4
HETATM    4  N   UNL     1       7.705  -6.060  27.539  1.00  0.00    -0.254 N 
ATOM      5  HN  UNL     1       8.549  -6.599  27.737  1.00  0.00     0.188 HD
BRANCH   4   6
HETATM    6  S   UNL     1       6.484  -6.219  28.554  1.00  0.00     0.233 S 
HETATM    7  C   UNL     1       5.065  -6.468  27.476  1.00  0.00     0.186 C 
HETATM    8  O   UNL     1       6.610  -7.415  29.345  1.00  0.00    -0.206 OA
HETATM    9  O   UNL     1       6.235  -5.049  29.345  1.00  0.00    -0.206 OA
ENDBRANCH   4   6
ENDBRANCH   3   4
ENDBRANCH   2   3
ENDBRANCH   1   2
BRANCH   1  10
HETATM   10  C   UNL     1       7.416  -3.517  24.252  1.00  0.00    -0.064 C 
BRANCH  10  11
HETATM   11  C   UNL     1       8.401  -2.608  24.057  1.00  0.00     0.290 C 
HETATM   12  O   UNL     1       9.305  -2.929  23.405  1.00  0.00    -0.259 OA
HETATM   13  N   UNL     1       8.169  -1.474  24.695  1.00  0.00    -0.315 N 
ATOM     14  HN  UNL     1       7.346  -1.393  25.292  1.00  0.00     0.170 HD
BRANCH  13  15
HETATM   15  C   UNL     1       8.945  -0.497  24.579  1.00  0.00     0.068 A 
HETATM   16  C   UNL     1      10.121  -0.080  25.129  1.00  0.00     0.118 A 
HETATM   17  N   UNL     1      11.030   0.613  25.319  1.00  0.00    -0.373 N 
HETATM   18  C   UNL     1      10.628   1.577  24.413  1.00  0.00     0.089 A 
ATOM     19  HN  UNL     1      11.839   0.538  25.935  1.00  0.00     0.164 HD
HETATM   20  C   UNL     1       9.660   1.509  23.697  1.00  0.00     0.038 A 
HETATM   21  C   UNL     1       8.661   0.635  23.591  1.00  0.00     0.040 A 
HETATM   22 BR   UNL     1       7.309   0.681  22.668  1.00  0.00    -0.049 Br
ENDBRANCH  13  15
ENDBRANCH  10  11
ENDBRANCH   1  10
BRANCH   1  23
HETATM   23  C   UNL     1       5.116  -3.472  24.792  1.00  0.00    -0.010 C 
HETATM   24  C   UNL     1       4.606  -2.836  25.151  1.00  0.00     0.009 C 
ENDBRANCH   1  23
BRANCH   1  25
HETATM   25  C   UNL     1       5.979  -5.221  23.523  1.00  0.00    -0.001 C 
BRANCH  25  26
HETATM   26  C   UNL     1       6.452  -5.575  22.477  1.00  0.00    -0.012 C 
HETATM   27  C   UNL     1       7.092  -6.152  21.876  1.00  0.00     0.011 C 
ENDBRANCH  25  26
ENDBRANCH   1  25
TORSDOF 10
ENDMDL
MODEL 8
REMARK VINA RESULT:    -5.887      2.749      6.103
REMARK INTER + INTRA:          -9.198
REMARK INTER:                  -9.123
REMARK INTRA:                  -0.075
REMARK UNBOUND:                -0.214
REMARK  10 active torsions:
REMARK  status: ('A' for Active; 'I' for Inactive)
REMARK    1  A    between atoms: S_2  and  N_5 
REMARK    2  A    between atoms: N_5  and  C_7 
REMARK    3  A    between atoms: C_7  and  C_8 
REMARK    4  A    between atoms: C_8  and  C_9 
REMARK    5  A    between atoms: C_9  and  C_15 
REMARK    6  A    between atoms: C_9  and  C_14 
REMARK    7  A    between atoms: C_9  and  C_10 
REMARK    8  A    between atoms: C_10  and  C_11 
REMARK    9  A    between atoms: C_15  and  C_16 
REMARK       I    between atoms: C_16  and  N_18 
REMARK   10  A    between atoms: N_18  and  C_20 
ROOT
HETATM    1  C   UNL     1      10.359  -0.266  23.545  1.00  0.00     0.067 C 
ENDROOT
BRANCH   1   2
HETATM    2  C   UNL     1       9.448  -0.728  24.492  1.00  0.00     0.135 C 
BRANCH   2   3
HETATM    3  C   UNL     1       9.078  -1.388  25.354  1.00  0.00    -0.058 C 
BRANCH   3   4
HETATM    4  N   UNL     1       8.566  -2.312  25.955  1.00  0.00    -0.254 N 
ATOM      5  HN  UNL     1       8.565  -2.260  26.974  1.00  0.00     0.188 HD
BRANCH   4   6
HETATM    6  S   UNL     1       7.895  -3.598  25.291  1.00  0.00     0.233 S 
HETATM    7  C   UNL     1       7.966  -4.837  26.594  1.00  0.00     0.186 C 
HETATM    8  O   UNL     1       6.500  -3.380  25.011  1.00  0.00    -0.206 OA
HETATM    9  O   UNL     1       8.618  -4.107  24.161  1.00  0.00    -0.206 OA
ENDBRANCH   4   6
ENDBRANCH   3   4
ENDBRANCH   2   3
ENDBRANCH   1   2
BRANCH   1  10
HETATM   10  C   UNL     1       9.502  -0.315  22.686  1.00  0.00    -0.064 C 
BRANCH  10  11
HETATM   11  C   UNL     1       8.477  -0.515  21.825  1.00  0.00     0.290 C 
HETATM   12  O   UNL     1       7.918  -1.530  21.882  1.00  0.00    -0.259 OA
HETATM   13  N   UNL     1       8.300   0.511  21.010  1.00  0.00    -0.315 N 
ATOM     14  HN  UNL     1       8.942   1.302  21.053  1.00  0.00     0.170 HD
BRANCH  13  15
HETATM   15  C   UNL     1       7.357   0.527  20.186  1.00  0.00     0.068 A 
HETATM   16  C   UNL     1       7.066  -0.049  18.984  1.00  0.00     0.118 A 
HETATM   17  N   UNL     1       6.457  -0.282  18.027  1.00  0.00    -0.373 N 
HETATM   18  C   UNL     1       5.397   0.541  18.363  1.00  0.00     0.089 A 
ATOM     19  HN  UNL     1       6.637  -0.882  17.223  1.00  0.00     0.164 HD
HETATM   20  C   UNL     1       5.287   1.161  19.391  1.00  0.00     0.038 A 
HETATM   21  C   UNL     1       6.096   1.357  20.431  1.00  0.00     0.040 A 
HETATM   22 BR   UNL     1       5.917   2.321  21.743  1.00  0.00    -0.049 Br
ENDBRANCH  13  15
ENDBRANCH  10  11
ENDBRANCH   1  10
BRANCH   1  23
HETATM   23  C   UNL     1      11.635  -1.282  23.004  1.00  0.00    -0.010 C 
HETATM   24  C   UNL     1      12.464  -1.607  23.029  1.00  0.00     0.009 C 
ENDBRANCH   1  23
BRANCH   1  25
HETATM   25  C   UNL     1      11.265   0.940  23.590  1.00  0.00    -0.001 C 
BRANCH  25  26
HETATM   26  C   UNL     1      10.995   2.094  23.394  1.00  0.00    -0.012 C 
HETATM   27  C   UNL     1      10.975   3.115  23.640  1.00  0.00     0.011 C 
ENDBRANCH  25  26
ENDBRANCH   1  25
TORSDOF 10
ENDMDL
MODEL 9
REMARK VINA RESULT:    -5.641     13.709     15.932
REMARK INTER + INTRA:          -8.822
REMARK INTER:                  -8.521
REMARK INTRA:                  -0.301
REMARK UNBOUND:                -0.214
REMARK  10 active torsions:
REMARK  status: ('A' for Active; 'I' for Inactive)
REMARK    1  A    between atoms: S_2  and  N_5 
REMARK    2  A    between atoms: N_5  and  C_7 
REMARK    3  A    between atoms: C_7  and  C_8 
REMARK    4  A    between atoms: C_8  and  C_9 
REMARK    5  A    between atoms: C_9  and  C_15 
REMARK    6  A    between atoms: C_9  and  C_14 
REMARK    7  A    between atoms: C_9  and  C_10 
REMARK    8  A    between atoms: C_10  and  C_11 
REMARK    9  A    between atoms: C_15  and  C_16 
REMARK       I    between atoms: C_16  and  N_18 
REMARK   10  A    between atoms: N_18  and  C_20 
ROOT
HETATM    1  C   UNL     1      22.794  -1.778  25.058  1.00  0.00     0.067 C 
ENDROOT
BRANCH   1   2
HETATM    2  C   UNL     1      23.536  -2.937  24.849  1.00  0.00     0.135 C 
BRANCH   2   3
HETATM    3  C   UNL     1      23.700  -4.046  24.606  1.00  0.00    -0.058 C 
BRANCH   3   4
HETATM    4  N   UNL     1      23.699  -5.258  24.709  1.00  0.00    -0.254 N 
ATOM      5  HN  UNL     1      23.200  -5.785  23.992  1.00  0.00     0.188 HD
BRANCH   4   6
HETATM    6  S   UNL     1      24.410  -6.095  25.867  1.00  0.00     0.233 S 
HETATM    7  C   UNL     1      26.160  -5.963  25.475  1.00  0.00     0.186 C 
HETATM    8  O   UNL     1      24.231  -5.470  27.153  1.00  0.00    -0.206 OA
HETATM    9  O   UNL     1      24.063  -7.486  25.869  1.00  0.00    -0.206 OA
ENDBRANCH   4   6
ENDBRANCH   3   4
ENDBRANCH   2   3
ENDBRANCH   1   2
BRANCH   1  10
HETATM   10  C   UNL     1      23.255  -1.676  26.177  1.00  0.00    -0.064 C 
BRANCH  10  11
HETATM   11  C   UNL     1      23.600  -1.498  27.474  1.00  0.00     0.290 C 
HETATM   12  O   UNL     1      23.802  -0.413  27.831  1.00  0.00    -0.259 OA
HETATM   13  N   UNL     1      23.683  -2.642  28.131  1.00  0.00    -0.315 N 
ATOM     14  HN  UNL     1      23.542  -3.520  27.631  1.00  0.00     0.170 HD
BRANCH  13  15
HETATM   15  C   UNL     1      23.931  -2.666  29.359  1.00  0.00     0.068 A 
HETATM   16  C   UNL     1      23.227  -2.595  30.525  1.00  0.00     0.118 A 
HETATM   17  N   UNL     1      23.049  -2.564  31.669  1.00  0.00    -0.373 N 
HETATM   18  C   UNL     1      24.388  -2.672  31.996  1.00  0.00     0.089 A 
ATOM     19  HN  UNL     1      22.204  -2.485  32.234  1.00  0.00     0.164 HD
HETATM   20  C   UNL     1      25.294  -2.817  31.213  1.00  0.00     0.038 A 
HETATM   21  C   UNL     1      25.360  -2.820  29.883  1.00  0.00     0.040 A 
HETATM   22 BR   UNL     1      26.658  -2.902  28.888  1.00  0.00    -0.049 Br
ENDBRANCH  13  15
ENDBRANCH  10  11
ENDBRANCH   1  10
BRANCH   1  23
HETATM   23  C   UNL     1      21.089  -1.864  25.252  1.00  0.00    -0.010 C 
HETATM   24  C   UNL     1      20.291  -1.534  25.471  1.00  0.00     0.009 C 
ENDBRANCH   1  23
BRANCH   1  25
HETATM   25  C   UNL     1      22.688  -0.537  24.206  1.00  0.00    -0.001 C 
BRANCH  25  26
HETATM   26  C   UNL     1      23.375   0.449  24.222  1.00  0.00    -0.012 C 
HETATM   27  C   UNL     1      23.546   1.480  24.328  1.00  0.00     0.011 C 
ENDBRANCH  25  26
ENDBRANCH   1  25
TORSDOF 10
ENDMDL
