REMARK  10 active torsions:
REMARK  status: ('A' for Active; 'I' for Inactive)
REMARK    1  A    between atoms: S_2  and  N_5 
REMARK    2  A    between atoms: N_5  and  C_7 
REMARK    3  A    between atoms: C_7  and  C_8 
REMARK    4  A    between atoms: C_8  and  C_9 
REMARK    5  A    between atoms: C_9  and  C_15 
REMARK    6  A    between atoms: C_9  and  C_14 
REMARK    7  A    between atoms: C_9  and  C_10 
REMARK    8  A    between atoms: C_10  and  C_11 
REMARK    9  A    between atoms: C_15  and  C_16 
REMARK       I    between atoms: C_16  and  N_18 
REMARK   10  A    between atoms: N_18  and  C_20 
ROOT
HETATM    1  C   UNL     1      10.390  -1.101  23.272  1.00  0.00     0.067 C 
ENDROOT
BRANCH   1   2
HETATM    2  C   UNL     1       9.400  -2.033  23.571  1.00  0.00     0.135 C 
BRANCH   2   3
HETATM    3  C   UNL     1       8.922  -2.907  24.140  1.00  0.00    -0.058 C 
BRANCH   3   4
HETATM    4  N   UNL     1       8.085  -3.618  24.661  1.00  0.00    -0.254 N 
ATOM      5  HN  UNL     1       7.226  -3.786  24.137  1.00  0.00     0.188 HD
BRANCH   4   6
HETATM    6  S   UNL     1       8.212  -4.311  26.093  1.00  0.00     0.233 S 
HETATM    7  C   UNL     1       6.530  -4.829  26.466  1.00  0.00     0.186 C 
HETATM    8  O   UNL     1       9.004  -5.512  26.028  1.00  0.00    -0.206 OA
HETATM    9  O   UNL     1       8.637  -3.417  27.131  1.00  0.00    -0.206 OA
ENDBRANCH   4   6
ENDBRANCH   3   4
ENDBRANCH   2   3
ENDBRANCH   1   2
BRANCH   1  10
HETATM   10  C   UNL     1       9.696  -0.636  22.390  1.00  0.00    -0.064 C 
BRANCH  10  11
HETATM   11  C   UNL     1       9.028   0.036  21.423  1.00  0.00     0.290 C 
HETATM   12  O   UNL     1       9.523   0.995  20.998  1.00  0.00    -0.259 OA
HETATM   13  N   UNL     1       7.864  -0.521  21.139  1.00  0.00    -0.315 N 
ATOM     14  HN  UNL     1       7.552  -1.332  21.673  1.00  0.00     0.170 HD
BRANCH  13  15
HETATM   15  C   UNL     1       7.137  -0.069  20.224  1.00  0.00     0.068 A 
HETATM   16  C   UNL     1       7.184   0.033  18.865  1.00  0.00     0.118 A 
HETATM   17  N   UNL     1       6.835   0.322  17.799  1.00  0.00    -0.373 N 
HETATM   18  C   UNL     1       5.655   0.907  18.221  1.00  0.00     0.089 A 
ATOM     19  HN  UNL     1       7.250   0.191  16.877  1.00  0.00     0.164 HD
HETATM   20  C   UNL     1       5.255   0.943  19.358  1.00  0.00     0.038 A 
HETATM   21  C   UNL     1       5.782   0.574  20.524  1.00  0.00     0.040 A 
HETATM   22 BR   UNL     1       5.219   0.771  22.049  1.00  0.00    -0.049 Br
ENDBRANCH  13  15
ENDBRANCH  10  11
ENDBRANCH   1  10
BRANCH   1  23
HETATM   23  C   UNL     1      11.850  -1.600  22.516  1.00  0.00    -0.010 C 
HETATM   24  C   UNL     1      12.713  -1.518  22.310  1.00  0.00     0.009 C 
ENDBRANCH   1  23
BRANCH   1  25
HETATM   25  C   UNL     1      11.125  -0.151  24.186  1.00  0.00    -0.001 C 
BRANCH  25  26
HETATM   26  C   UNL     1      12.278   0.186  24.154  1.00  0.00    -0.012 C 
HETATM   27  C   UNL     1      13.259   0.164  23.779  1.00  0.00     0.011 C 
ENDBRANCH  25  26
ENDBRANCH   1  25
TORSDOF 10
