stable:False satoms:8 tatoms:24 sratio:0.3333333333333333
  -OEChem-07092417453D

 24 24  0     1  0  0  0  0  0999 V2000
    6.5304   -4.8291   26.4660 C   0  0  0  0  0  0  0  0  0  0  0  0
    8.2119   -4.3106   26.0935 S   0  0  0  0  0  0  0  0  0  0  0  0
    9.0042   -5.5122   26.0282 O   0  0  0  0  0  0  0  0  0  0  0  0
    8.6372   -3.4168   27.1312 O   0  0  0  0  0  0  0  0  0  0  0  0
    8.0851   -3.6183   24.6609 N   0  0  0  0  0  0  0  0  0  0  0  0
    8.9218   -2.9068   24.1403 C   0  0  0  0  0  0  0  0  0  0  0  0
    9.4000   -2.0328   23.5709 C   0  0  0  0  0  0  0  0  0  0  0  0
   10.3901   -1.1007   23.2716 C   0  0  1  0  0  0  0  0  0  0  0  0
   11.1253   -0.1506   24.1857 C   0  0  0  0  0  0  0  0  0  0  0  0
   12.2780    0.1863   24.1542 C   0  0  0  0  0  0  0  0  0  0  0  0
   13.2594    0.1642   23.7785 C   0  0  0  0  0  0  0  0  0  0  0  0
   12.7129   -1.5178   22.3104 C   0  0  0  0  0  0  0  0  0  0  0  0
   11.8503   -1.5998   22.5157 C   0  0  0  0  0  0  0  0  0  0  0  0
    9.6961   -0.6364   22.3904 C   0  0  0  0  0  0  0  0  0  0  0  0
    9.0280    0.0361   21.4228 C   0  0  0  0  0  0  0  0  0  0  0  0
    9.5234    0.9954   20.9977 O   0  0  0  0  0  0  0  0  0  0  0  0
    7.8637   -0.5212   21.1385 N   0  0  0  0  0  0  0  0  0  0  0  0
    7.1368   -0.0693   20.2236 C   0  0  0  0  0  0  0  0  0  0  0  0
    7.1839    0.0327   18.8651 C   0  0  0  0  0  0  0  0  0  0  0  0
    6.8345    0.3218   17.7993 N   0  0  0  0  0  0  0  0  0  0  0  0
    5.6548    0.9072   18.2215 C   0  0  0  0  0  0  0  0  0  0  0  0
    5.2547    0.9428   19.3577 C   0  0  0  0  0  0  0  0  0  0  0  0
    5.7821    0.5744   20.5238 C   0  0  0  0  0  0  0  0  0  0  0  0
    5.2191    0.7713   22.0492 Br  0  0  0  0  0  0  0  0  0  0  0  0
 20 21  2  0  0  0  0
 19 20  1  0  0  0  0
 21 22  1  0  0  0  0
 18 19  2  0  0  0  0
 22 23  2  0  0  0  0
 18 23  1  0  0  0  0
 17 18  1  0  0  0  0
 23 24  1  0  0  0  0
 15 16  2  0  0  0  0
 15 17  1  0  0  0  0
 14 15  1  0  0  0  0
 12 13  2  0  0  0  0
  8 14  1  0  0  0  0
  8 13  1  0  0  0  0
  7  8  1  0  0  0  0
  8  9  1  0  0  0  0
  6  7  3  0  0  0  0
 10 11  2  0  0  0  0
  5  6  1  0  0  0  0
  9 10  1  0  0  0  0
  2  5  1  0  0  0  0
  2  3  2  0  0  0  0
  1  2  1  0  0  0  0
  2  4  2  0  0  0  0
M  END
> <Shapegauss>
-283.169861

$$$$
