stable:False satoms:22 tatoms:24 sratio:0.9166666666666666
  -OEChem-08052418483D

 24 24  0     0  0  0  0  0  0999 V2000
   10.1128    3.3827   23.7881 C   0  0  0  0  0  0  0  0  0  0  0  0
    8.3000    2.5368   22.4835 H   0  0  0  0  0  0  0  0  0  0  0  0
    9.7142    2.7810   24.5988 H   0  0  0  0  0  0  0  0  0  0  0  0
    9.5703    2.7966   22.5504 N   0  3  0  0  0  0  0  0  0  0  0  0
    8.3000    2.5368   22.4835 C   0  0  0  0  0  2  0  0  0  0  0  0
    9.7791    3.4334   21.8081 H   0  0  0  0  0  0  0  0  0  0  0  0
   12.0639    0.8714   24.1049 C   0  0  0  0  0  0  0  0  0  0  0  0
   11.6662    3.4292   23.9231 C   0  0  0  0  0  0  0  0  0  0  0  0
    9.7385    4.3891   23.9057 H   0  0  0  0  0  0  0  0  0  0  0  0
   11.9317    4.2906   24.5363 H   0  0  0  0  0  0  0  0  0  0  0  0
   10.9410    0.4440   23.5232 C   0  0  0  0  0  0  0  0  0  0  0  0
   13.4303    2.3799   24.5195 H   0  0  0  0  0  0  0  0  0  0  0  0
   12.0876    2.2529   25.6325 H   0  0  0  0  0  0  0  0  0  0  0  0
   10.2595   -0.5020   21.7752 H   0  0  0  0  0  0  0  0  0  0  0  0
   12.0748    3.5444   22.9445 H   0  0  0  0  0  0  0  0  0  0  0  0
    9.9591    0.7596   23.8064 H   0  0  0  0  0  0  0  0  0  0  0  0
   11.9042   -1.5764   22.5271 C   0  0  0  0  0  0  0  0  0  0  0  0
   13.0649   -1.7112   23.3486 C   0  0  0  0  0  0  0  0  0  0  0  0
   13.3504   -0.3721   24.3841 S   0  0  0  0  0  0  0  0  0  0  0  0
   13.8244   -2.6630   23.3521 O   0  0  0  0  0  0  0  0  0  0  0  0
   12.3654    2.2110   24.5840 C   0  0  0  0  0  0  0  0  0  0  0  0
   11.8091   -2.3842   21.8265 H   0  0  0  0  0  0  0  0  0  0  0  0
   11.0081   -0.5558   22.5314 C   0  0  0  0  0  0  0  0  0  0  0  0
   10.0545    1.9353   22.3968 H   0  0  0  0  0  0  0  0  0  0  0  0
 18 20  2  0  0  0  0
 18 19  1  0  0  0  0
 17 18  1  0  0  0  0
 17 22  1  0  0  0  0
  7 19  1  0  0  0  0
 17 23  2  0  0  0  0
 11 23  1  0  0  0  0
 14 23  1  0  0  0  0
  7 11  2  0  0  0  0
  7 21  1  0  0  0  0
 11 16  1  0  0  0  0
 13 21  1  0  0  0  0
 12 21  1  0  0  0  0
  8 21  1  0  0  0  0
  1  3  1  0  0  0  0
  1  8  1  0  0  0  0
  8 10  1  0  0  0  0
  8 15  1  0  0  0  0
  1  4  1  0  0  0  0
  1  9  1  0  0  0  0
  4  6  1  0  0  0  0
  4  5  1  0  0  0  0
  2  5  1  0  0  0  0
  4 24  1  0  0  0  0
M  CHG  1   4   1
M  END
> <Chemgauss4>
-6.409208

$$$$
