stable:False satoms:22 tatoms:24 sratio:0.9166666666666666
  -OEChem-08052418483D

 24 24  0     0  0  0  0  0  0999 V2000
   -9.6817    3.5576  -23.6436 C   0  0  0  0  0  0  0  0  0  0  0  0
   -7.8269    2.6435  -22.4486 H   0  0  0  0  0  0  0  0  0  0  0  0
   -9.3179    2.9918  -24.4954 H   0  0  0  0  0  0  0  0  0  0  0  0
   -9.0970    2.9125  -22.4554 N   0  3  0  0  0  0  0  0  0  0  0  0
   -7.8269    2.6435  -22.4486 C   0  0  0  0  0  2  0  0  0  0  0  0
   -9.2735    3.5155  -21.6774 H   0  0  0  0  0  0  0  0  0  0  0  0
  -11.6602    1.0734  -24.0008 C   0  0  0  0  0  0  0  0  0  0  0  0
  -11.2387    3.6181  -23.7174 C   0  0  0  0  0  0  0  0  0  0  0  0
   -9.3053    4.5665  -23.7291 H   0  0  0  0  0  0  0  0  0  0  0  0
  -11.5213    4.5081  -24.2800 H   0  0  0  0  0  0  0  0  0  0  0  0
  -10.5192    0.6140  -23.4822 C   0  0  0  0  0  0  0  0  0  0  0  0
  -13.0310    2.6062  -24.2939 H   0  0  0  0  0  0  0  0  0  0  0  0
  -11.7320    2.5237  -25.4617 H   0  0  0  0  0  0  0  0  0  0  0  0
   -9.7790   -0.4147  -21.8063 H   0  0  0  0  0  0  0  0  0  0  0  0
  -11.6095    3.6902  -22.7198 H   0  0  0  0  0  0  0  0  0  0  0  0
   -9.5466    0.9373  -23.7876 H   0  0  0  0  0  0  0  0  0  0  0  0
  -11.4580   -1.4451  -22.5438 C   0  0  0  0  0  0  0  0  0  0  0  0
  -12.6496   -1.5362  -23.3261 C   0  0  0  0  0  0  0  0  0  0  0  0
  -12.9648   -0.1495  -24.2877 S   0  0  0  0  0  0  0  0  0  0  0  0
  -13.4151   -2.4830  -23.3443 O   0  0  0  0  0  0  0  0  0  0  0  0
  -11.9704    2.4351  -24.4064 C   0  0  0  0  0  0  0  0  0  0  0  0
  -11.3420   -2.2847  -21.8850 H   0  0  0  0  0  0  0  0  0  0  0  0
  -10.5558   -0.4300  -22.5353 C   0  0  0  0  0  0  0  0  0  0  0  0
   -9.5809    2.0475  -22.3231 H   0  0  0  0  0  0  0  0  0  0  0  0
 18 20  2  0  0  0  0
 18 19  1  0  0  0  0
 17 18  1  0  0  0  0
 17 22  1  0  0  0  0
  7 19  1  0  0  0  0
 17 23  2  0  0  0  0
 11 23  1  0  0  0  0
 14 23  1  0  0  0  0
  7 11  2  0  0  0  0
  7 21  1  0  0  0  0
 11 16  1  0  0  0  0
 13 21  1  0  0  0  0
 12 21  1  0  0  0  0
  8 21  1  0  0  0  0
  1  3  1  0  0  0  0
  1  8  1  0  0  0  0
  8 10  1  0  0  0  0
  8 15  1  0  0  0  0
  1  4  1  0  0  0  0
  1  9  1  0  0  0  0
  4  6  1  0  0  0  0
  4  5  1  0  0  0  0
  2  5  1  0  0  0  0
  4 24  1  0  0  0  0
M  CHG  1   4   1
M  END
> <Chemgauss4>
-6.645268

$$$$
