REMARK  4 active torsions:
REMARK  status: ('A' for Active; 'I' for Inactive)
REMARK    1  A    between atoms: C_1  and  O_12 
REMARK    2  A    between atoms: C_1  and  C_9 
REMARK    3  A    between atoms: C_2  and  C_14 
REMARK    4  A    between atoms: N_5  and  C_7 
ROOT
HETATM    1  C   UNL     1       9.475  -0.153  23.291  1.00  0.00    -0.003 C 
HETATM    2  S   UNL     1       9.878   0.206  26.044  1.00  0.00    -0.084 SA
HETATM    3  C   UNL     1       9.559  -0.738  24.590  1.00  0.00     0.077 C 
HETATM    4  C   UNL     1       9.557   1.809  25.456  1.00  0.00     0.052 C 
HETATM    5  C   UNL     1       9.297   2.121  24.145  1.00  0.00     0.008 C 
HETATM    6  C   UNL     1       9.143   1.190  23.130  1.00  0.00     0.014 C 
ENDROOT
BRANCH   1   7
HETATM    7  C   UNL     1       9.733  -0.969  22.150  1.00  0.00     0.018 C 
HETATM    8  C   UNL     1       9.965  -2.314  22.000  1.00  0.00     0.060 C 
BRANCH   8   9
HETATM    9  C   UNL     1       9.167  -2.845  20.905  1.00  0.00     0.221 C 
HETATM   10  O   UNL     1       9.535  -3.326  19.877  1.00  0.00    -0.284 OA
BRANCH   9  11
HETATM   11  O   UNL     1       7.865  -2.521  21.276  1.00  0.00     0.000 OA
HETATM   12  C   UNL     1       6.905  -2.473  20.272  1.00  0.00     0.000 A 
HETATM   13  C   UNL     1       6.842  -3.721  21.006  1.00  0.00     0.000 A 
ENDBRANCH   9  11
ENDBRANCH   8   9
ENDBRANCH   1   7
BRANCH   3  14
HETATM   14  N   UNL     1       9.415  -1.957  24.899  1.00  0.00    -0.393 N 
HETATM   15  H   UNL     1       8.847  -2.518  24.312  1.00  0.00     0.156 HD
ATOM     16  HN  UNL     1       9.868  -2.349  25.724  1.00  0.00     0.156 HD
ENDBRANCH   3  14
TORSDOF 4
