
 OpenBabel07202414173D

 58 61  0  0  1  0  0  0  0  0999 V2000
    0.6322   -1.9174    1.1129 Cl  0  0  0  0  0  0  0  0  0  0  0  0
    2.3678   -2.2121    1.3276 C   0  0  0  0  0  0  0  0  0  0  0  0
    3.2028   -0.9527    1.1148 C   0  0  0  0  0  0  0  0  0  0  0  0
    2.7168    0.1275    0.7771 O   0  0  0  0  0  0  0  0  0  0  0  0
    4.5749   -1.0774    1.3489 N   0  0  0  0  0  0  0  0  0  0  0  0
    5.4427    0.1086    1.2882 C   0  0  0  0  0  0  0  0  0  0  0  0
    6.6325   -0.0841    0.3257 C   0  0  0  0  0  0  0  0  0  0  0  0
    7.3602   -1.3957    0.5200 N   0  0  0  0  0  0  0  0  0  0  0  0
    8.3573   -1.4793    1.9285 S   0  0  0  0  0  0  0  0  0  0  0  0
    7.6439   -0.9293    3.0514 O   0  0  0  0  0  0  0  0  0  0  0  0
    8.9157   -2.8177    1.9771 O   0  0  0  0  0  0  0  0  0  0  0  0
    9.7541   -0.4676    1.7640 C   0  0  0  0  0  0  0  0  0  0  0  0
   10.0478    0.6537    2.6022 C   0  0  0  0  0  0  0  0  0  0  0  0
   11.2470    1.2495    2.2670 C   0  0  0  0  0  0  0  0  0  0  0  0
   12.0244    0.4381    0.9765 S   0  0  0  0  0  0  0  0  0  0  0  0
   10.7648   -0.7144    0.8611 C   0  0  0  0  0  0  0  0  0  0  0  0
    6.3722   -2.5545    0.4697 C   0  0  2  0  0  0  0  0  0  0  0  0
    5.6949   -2.7970   -0.8954 C   0  0  0  0  0  0  0  0  0  0  0  0
    4.5863   -3.3304   -0.9665 O   0  0  0  0  0  0  0  0  0  0  0  0
    6.4051   -2.4545   -2.0265 N   0  0  0  0  0  0  0  0  0  0  0  0
    5.8440   -2.6172   -3.3721 C   0  0  0  0  0  0  0  0  0  0  0  0
    5.7545   -1.2692   -4.0979 C   0  0  0  0  0  0  0  0  0  0  0  0
    6.8139   -0.7418   -4.8557 C   0  0  0  0  0  0  0  0  0  0  0  0
    6.6861    0.4877   -5.5159 C   0  0  0  0  0  0  0  0  0  0  0  0
    5.4939    1.2035   -5.4460 C   0  0  0  0  0  0  0  0  0  0  0  0
    4.4301    0.6955   -4.7029 C   0  0  0  0  0  0  0  0  0  0  0  0
    4.5659   -0.5192   -4.0224 C   0  0  0  0  0  0  0  0  0  0  0  0
    6.5361   -3.7138   -4.1856 C   0  0  0  0  0  0  0  0  0  0  0  0
    5.7937   -4.4347   -5.1437 C   0  0  0  0  0  0  0  0  0  0  0  0
    6.4030   -5.3909   -5.9627 C   0  0  0  0  0  0  0  0  0  0  0  0
    7.7689   -5.6340   -5.8489 C   0  0  0  0  0  0  0  0  0  0  0  0
    8.5184   -4.9390   -4.9020 C   0  0  0  0  0  0  0  0  0  0  0  0
    7.9075   -3.9945   -4.0696 C   0  0  0  0  0  0  0  0  0  0  0  0
    5.2702   -2.3611    1.5431 C   0  0  0  0  0  0  0  0  0  0  0  0
    2.6499   -2.9838    0.6104 H   0  0  0  0  0  0  0  0  0  0  0  0
    2.5152   -2.5731    2.3498 H   0  0  0  0  0  0  0  0  0  0  0  0
    5.7856    0.3072    2.3069 H   0  0  0  0  0  0  0  0  0  0  0  0
    4.8793    0.9965    0.9844 H   0  0  0  0  0  0  0  0  0  0  0  0
    7.3412    0.7472    0.3967 H   0  0  0  0  0  0  0  0  0  0  0  0
    6.2535   -0.0689   -0.7032 H   0  0  0  0  0  0  0  0  0  0  0  0
    9.4252    0.9997    3.4221 H   0  0  0  0  0  0  0  0  0  0  0  0
   11.7130    2.1098    2.7290 H   0  0  0  0  0  0  0  0  0  0  0  0
   10.8364   -1.5318    0.1543 H   0  0  0  0  0  0  0  0  0  0  0  0
    6.9086   -3.4885    0.6771 H   0  0  0  0  0  0  0  0  0  0  0  0
    7.2894   -1.9768   -1.9204 H   0  0  0  0  0  0  0  0  0  0  0  0
    4.8096   -2.9687   -3.2505 H   0  0  0  0  0  0  0  0  0  0  0  0
    7.7456   -1.2887   -4.9703 H   0  0  0  0  0  0  0  0  0  0  0  0
    7.5159    0.8806   -6.0988 H   0  0  0  0  0  0  0  0  0  0  0  0
    5.3905    2.1483   -5.9717 H   0  0  0  0  0  0  0  0  0  0  0  0
    3.4919    1.2431   -4.6592 H   0  0  0  0  0  0  0  0  0  0  0  0
    3.7193   -0.8862   -3.4423 H   0  0  0  0  0  0  0  0  0  0  0  0
    4.7283   -4.2484   -5.2665 H   0  0  0  0  0  0  0  0  0  0  0  0
    5.8135   -5.9369   -6.6943 H   0  0  0  0  0  0  0  0  0  0  0  0
    8.2480   -6.3620   -6.4985 H   0  0  0  0  0  0  0  0  0  0  0  0
    9.5853   -5.1282   -4.8170 H   0  0  0  0  0  0  0  0  0  0  0  0
    8.5207   -3.4697   -3.3448 H   0  0  0  0  0  0  0  0  0  0  0  0
    5.6851   -2.3464    2.5553 H   0  0  0  0  0  0  0  0  0  0  0  0
    4.5781   -3.2043    1.5252 H   0  0  0  0  0  0  0  0  0  0  0  0
  1  2  1  0  0  0  0
  2  3  1  0  0  0  0
  2 35  1  0  0  0  0
  2 36  1  0  0  0  0
  3  4  2  0  0  0  0
  3  5  1  0  0  0  0
  5  6  1  0  0  0  0
  5 34  1  0  0  0  0
  6  7  1  0  0  0  0
  6 37  1  0  0  0  0
  6 38  1  0  0  0  0
  7  8  1  0  0  0  0
  7 39  1  0  0  0  0
  7 40  1  0  0  0  0
  8  9  1  0  0  0  0
  8 17  1  0  0  0  0
  9 10  2  0  0  0  0
  9 11  2  0  0  0  0
  9 12  1  0  0  0  0
 12 13  1  0  0  0  0
 12 16  2  0  0  0  0
 13 14  2  0  0  0  0
 13 41  1  0  0  0  0
 14 15  1  0  0  0  0
 14 42  1  0  0  0  0
 15 16  1  0  0  0  0
 16 43  1  0  0  0  0
 17 34  1  0  0  0  0
 17 18  1  0  0  0  0
 17 44  1  1  0  0  0
 18 19  2  0  0  0  0
 18 20  1  0  0  0  0
 20 21  1  0  0  0  0
 20 45  1  0  0  0  0
 21 22  1  0  0  0  0
 21 28  1  0  0  0  0
 21 46  1  0  0  0  0
 22 23  1  0  0  0  0
 22 27  2  0  0  0  0
 23 24  2  0  0  0  0
 23 47  1  0  0  0  0
 24 25  1  0  0  0  0
 24 48  1  0  0  0  0
 25 26  2  0  0  0  0
 25 49  1  0  0  0  0
 26 27  1  0  0  0  0
 26 50  1  0  0  0  0
 27 51  1  0  0  0  0
 28 29  1  0  0  0  0
 28 33  2  0  0  0  0
 29 30  2  0  0  0  0
 29 52  1  0  0  0  0
 30 31  1  0  0  0  0
 30 53  1  0  0  0  0
 31 32  2  0  0  0  0
 31 54  1  0  0  0  0
 32 33  1  0  0  0  0
 32 55  1  0  0  0  0
 33 56  1  0  0  0  0
 34 57  1  0  0  0  0
 34 58  1  0  0  0  0
M  END
$$$$
