REMARK  6 active torsions:
REMARK  status: ('A' for Active; 'I' for Inactive)
REMARK    1  A    between atoms: S_2  and  N_5 
REMARK    2  A    between atoms: N_5  and  C_7 
REMARK    3  A    between atoms: C_8  and  C_9 
REMARK    4  A    between atoms: C_9  and  C_15 
REMARK    5  A    between atoms: C_15  and  C_16 
REMARK       I    between atoms: C_16  and  N_18 
REMARK    6  A    between atoms: N_18  and  C_20 
ROOT
HETATM    1  C   UNL     1      10.306  -1.147  23.268  1.00  0.00     0.075 C 
HETATM    2  C   UNL     1      11.045   0.003  24.332  1.00  0.00    -0.000 C 
HETATM    3  C   UNL     1      12.010   0.322  24.320  1.00  0.00    -0.025 C 
HETATM    4  C   UNL     1      13.165  -0.213  23.412  1.00  0.00     0.054 C 
HETATM    5  C   UNL     1      12.749  -1.191  22.692  1.00  0.00    -0.025 C 
HETATM    6  C   UNL     1      11.778  -1.712  22.485  1.00  0.00    -0.000 C 
ENDROOT
BRANCH   1   7
HETATM    7  C   UNL     1       9.407  -1.971  23.512  1.00  0.00     0.021 C 
HETATM    8  C   UNL     1       8.974  -2.946  24.137  1.00  0.00     0.098 C 
BRANCH   8   9
HETATM    9  N   UNL     1       8.088  -3.611  24.675  1.00  0.00    -0.296 N 
ATOM     10  HN  UNL     1       7.209  -3.717  24.168  1.00  0.00     0.177 HD
BRANCH   9  11
HETATM   11  S   UNL     1       8.203  -4.324  26.108  1.00  0.00     0.226 S 
HETATM   12  C   UNL     1       6.583  -4.885  26.471  1.00  0.00     0.186 C 
HETATM   13  O   UNL     1       9.038  -5.490  26.039  1.00  0.00    -0.206 OA
HETATM   14  O   UNL     1       8.579  -3.437  27.157  1.00  0.00    -0.206 OA
ENDBRANCH   9  11
ENDBRANCH   8   9
ENDBRANCH   1   7
BRANCH   1  15
HETATM   15  C   UNL     1       9.761  -0.591  22.374  1.00  0.00    -0.061 C 
BRANCH  15  16
HETATM   16  C   UNL     1       9.068   0.038  21.391  1.00  0.00     0.290 C 
HETATM   17  O   UNL     1       9.539   0.990  20.954  1.00  0.00    -0.259 OA
HETATM   18  N   UNL     1       7.934  -0.546  21.101  1.00  0.00    -0.315 N 
ATOM     19  HN  UNL     1       7.607  -1.348  21.640  1.00  0.00     0.170 HD
BRANCH  18  20
HETATM   20  C   UNL     1       7.261  -0.100  20.149  1.00  0.00     0.060 A 
HETATM   21  C   UNL     1       7.293  -0.026  18.869  1.00  0.00     0.117 A 
HETATM   22  N   UNL     1       6.730   0.332  17.756  1.00  0.00    -0.373 N 
HETATM   23  C   UNL     1       5.667   0.877  18.227  1.00  0.00     0.088 A 
ATOM     24  HN  UNL     1       7.040   0.215  16.791  1.00  0.00     0.164 HD
HETATM   25  C   UNL     1       5.263   0.994  19.444  1.00  0.00     0.030 A 
HETATM   26  C   UNL     1       5.811   0.599  20.555  1.00  0.00    -0.016 A 
HETATM   27  C   UNL     1       5.333   0.748  21.867  1.00  0.00     0.026 C 
ENDBRANCH  18  20
ENDBRANCH  15  16
ENDBRANCH   1  15
TORSDOF 6
