stable:False satoms:17 tatoms:24 sratio:0.7083333333333334
  -OEChem-08062402363D

 26 26  0     1  0  0  0  0  0999 V2000
    7.9241   -6.0536   24.6963 H   0  0  0  0  0  0  0  0  0  0  0  0
    7.5496   -5.1261   25.1432 C   0  0  3  0  0  0  0  0  0  0  0  0
    5.9099   -6.0070   26.6169 O   0  0  0  0  0  0  0  0  0  0  0  0
    6.8471   -5.2819   26.2942 C   0  0  0  0  0  0  0  0  0  0  0  0
    7.3356   -4.6319   27.0396 H   0  0  0  0  0  0  0  0  0  0  0  0
    7.8410   -3.7561   24.7868 C   0  0  0  0  0  0  0  0  0  0  0  0
    8.7568   -3.3689   25.1857 H   0  0  0  0  0  0  0  0  0  0  0  0
    7.1887   -2.8202   24.0865 N   0  0  0  0  0  0  0  0  0  0  0  0
    9.1462   -2.1550   22.4687 S   0  0  0  0  0  0  0  0  0  0  0  0
    7.8844   -1.8313   23.5336 C   0  0  0  0  0  0  0  0  0  0  0  0
    6.1172    0.3912   23.6957 H   0  0  0  0  0  0  0  0  0  0  0  0
    6.9062    0.2328   24.4369 C   0  0  0  0  0  0  0  0  0  0  0  0
    6.4656   -0.3119   25.2561 H   0  0  0  0  0  0  0  0  0  0  0  0
    8.0537   -0.5435   23.9221 C   0  0  0  0  0  0  0  0  0  0  0  0
    7.3760    1.1609   24.7051 H   0  0  0  0  0  0  0  0  0  0  0  0
    9.3146   -0.0582   23.8338 N   0  0  0  0  0  0  0  0  0  0  0  0
   10.1440   -0.9827   23.4564 C   0  0  0  0  0  0  0  0  0  0  0  0
   11.5062   -1.1746   23.5138 C   0  0  0  0  0  0  0  0  0  0  0  0
   12.0640    0.7449   24.6582 C   0  0  0  0  0  2  0  0  0  0  0  0
   12.0759    1.5939   25.1201 H   0  0  0  0  0  0  0  0  0  0  0  0
   12.6408   -0.2288   24.0437 C   0  0  0  0  0  0  0  0  0  0  0  0
   13.8224   -0.4555   23.8624 O   0  0  0  0  0  0  0  0  0  0  0  0
   12.8571   -2.4586   23.3662 H   0  0  0  0  0  0  0  0  0  0  0  0
   11.9993   -2.2493   22.9620 O   0  0  0  0  0  0  0  0  0  0  0  0
    6.1952   -2.8641   23.9811 H   0  0  0  0  0  0  0  0  0  0  0  0
    9.5728    0.8871   24.0330 H   0  0  0  0  0  0  0  0  0  0  0  0
 19 20  1  0  0  0  0
 19 21  1  0  0  0  0
 21 22  2  0  0  0  0
 18 21  1  0  0  0  0
 12 15  1  0  0  0  0
 17 18  2  0  0  0  0
 18 24  1  0  0  0  0
 16 17  1  0  0  0  0
 14 16  1  0  0  0  0
 23 24  1  0  0  0  0
  9 17  1  0  0  0  0
 12 14  1  0  0  0  0
 12 13  1  0  0  0  0
 11 12  1  0  0  0  0
 10 14  2  0  0  0  0
  6  7  1  0  0  0  0
  9 10  1  0  0  0  0
  8 10  1  0  0  0  0
  4  5  1  0  0  0  0
  6  8  1  0  0  0  0
  2  6  2  0  0  0  0
  2  4  1  0  0  0  0
  3  4  2  0  0  0  0
  1  2  1  0  0  0  0
  8 25  1  0  0  0  0
 16 26  1  0  0  0  0
M  END
> <Chemgauss4>
-5.398017

$$$$
