stable:False satoms:17 tatoms:24 sratio:0.7083333333333334
  -OEChem-08062402363D

 26 26  0     1  0  0  0  0  0999 V2000
   -7.5155   -5.8366  -24.0200 H   0  0  0  0  0  0  0  0  0  0  0  0
   -7.1908   -4.9366  -24.5537 C   0  0  3  0  0  0  0  0  0  0  0  0
   -5.4595   -5.8512  -25.8963 O   0  0  0  0  0  0  0  0  0  0  0  0
   -6.4500   -5.1617  -25.6687 C   0  0  0  0  0  0  0  0  0  0  0  0
   -6.9604   -4.6259  -26.4867 H   0  0  0  0  0  0  0  0  0  0  0  0
   -7.5800   -3.5601  -24.3471 C   0  0  0  0  0  0  0  0  0  0  0  0
   -8.5084   -3.2785  -24.8014 H   0  0  0  0  0  0  0  0  0  0  0  0
   -7.0084   -2.5156  -23.7356 N   0  0  0  0  0  0  0  0  0  0  0  0
   -9.0463   -1.8218  -22.2332 S   0  0  0  0  0  0  0  0  0  0  0  0
   -7.7811   -1.5245  -23.3018 C   0  0  0  0  0  0  0  0  0  0  0  0
   -6.1588    0.7839  -23.6602 H   0  0  0  0  0  0  0  0  0  0  0  0
   -6.9164    0.4976  -24.3958 C   0  0  0  0  0  0  0  0  0  0  0  0
   -6.4201   -0.0972  -25.1455 H   0  0  0  0  0  0  0  0  0  0  0  0
   -8.0238   -0.2976  -23.8251 C   0  0  0  0  0  0  0  0  0  0  0  0
   -7.4385    1.3595  -24.7679 H   0  0  0  0  0  0  0  0  0  0  0  0
   -9.3155    0.1080  -23.8117 N   0  0  0  0  0  0  0  0  0  0  0  0
  -10.0924   -0.8268  -23.3562 C   0  0  0  0  0  0  0  0  0  0  0  0
  -11.4373   -1.1151  -23.4193 C   0  0  0  0  0  0  0  0  0  0  0  0
  -12.0891    0.6351  -24.7674 C   0  0  0  0  0  2  0  0  0  0  0  0
  -12.1443    1.4296  -25.3151 H   0  0  0  0  0  0  0  0  0  0  0  0
  -12.6169   -0.3072  -24.0661 C   0  0  0  0  0  0  0  0  0  0  0  0
  -13.7856   -0.5934  -23.8848 O   0  0  0  0  0  0  0  0  0  0  0  0
  -12.7050   -2.4654  -23.1649 H   0  0  0  0  0  0  0  0  0  0  0  0
  -11.8735   -2.1584  -22.7683 O   0  0  0  0  0  0  0  0  0  0  0  0
   -6.0172   -2.4813  -23.6073 H   0  0  0  0  0  0  0  0  0  0  0  0
   -9.6294    1.0084  -24.1129 H   0  0  0  0  0  0  0  0  0  0  0  0
 19 20  1  0  0  0  0
 19 21  1  0  0  0  0
 21 22  2  0  0  0  0
 18 21  1  0  0  0  0
 12 15  1  0  0  0  0
 17 18  2  0  0  0  0
 18 24  1  0  0  0  0
 16 17  1  0  0  0  0
 14 16  1  0  0  0  0
 23 24  1  0  0  0  0
  9 17  1  0  0  0  0
 12 14  1  0  0  0  0
 12 13  1  0  0  0  0
 11 12  1  0  0  0  0
 10 14  2  0  0  0  0
  6  7  1  0  0  0  0
  9 10  1  0  0  0  0
  8 10  1  0  0  0  0
  4  5  1  0  0  0  0
  6  8  1  0  0  0  0
  2  6  2  0  0  0  0
  2  4  1  0  0  0  0
  3  4  2  0  0  0  0
  1  2  1  0  0  0  0
  8 25  1  0  0  0  0
 16 26  1  0  0  0  0
M  END
> <Chemgauss4>
-5.334344

$$$$
