stable:False satoms:10 tatoms:24 sratio:0.4166666666666667
  -OEChem-07092417433D

 24 24  0     0  0  0  0  0  0999 V2000
    6.7642   -4.9563   26.4594 O   0  0  0  0  0  0  0  0  0  0  0  0
    8.1519   -4.4291   26.1410 S   0  0  0  0  0  0  0  0  0  0  0  0
    9.0826   -5.5168   26.0421 O   0  0  0  0  0  0  0  0  0  0  0  0
    8.5848   -3.4850   27.1402 O   0  5  0  0  0  0  0  0  0  0  0  0
    7.9975   -3.7103   24.7298 N   0  0  0  0  0  0  0  0  0  0  0  0
    8.7907   -2.9893   24.1823 C   0  0  0  0  0  0  0  0  0  0  0  0
    9.3261   -2.2237   23.6284 C   0  0  0  0  0  0  0  0  0  0  0  0
   10.1676   -1.4346   22.9840 C   0  0  0  0  0  0  0  0  0  0  0  0
   11.4552    0.3893   24.3734 H   0  0  0  0  0  0  0  0  0  0  0  0
   12.3537    0.1592   23.9616 C   0  5  0  0  0  0  0  0  0  0  0  0
   13.2496    0.4867   23.9762 H   0  0  0  0  0  0  0  0  0  0  0  0
   12.4857   -1.1269   23.0170 C   0  0  0  0  0  0  0  0  0  0  0  0
   11.5254   -1.5956   22.8505 C   0  0  0  0  0  0  0  0  0  0  0  0
    9.7924   -0.4686   22.2282 C   0  0  0  0  0  0  0  0  0  0  0  0
    9.0594    0.0874   21.2684 C   0  0  0  0  0  0  0  0  0  0  0  0
    9.4709    1.0428   20.6742 O   0  0  0  0  0  0  0  0  0  0  0  0
    7.8992   -0.6070   21.0736 N   0  0  0  0  0  0  0  0  0  0  0  0
    7.1635   -0.0573   20.1535 C   0  0  0  0  0  0  0  0  0  0  0  0
    7.2718    0.0180   18.8428 C   0  0  0  0  0  0  0  0  0  0  0  0
    6.7570    0.2832   17.8607 N   0  0  0  0  0  0  0  0  0  0  0  0
    5.6426    0.7686   18.2720 C   0  0  0  0  0  0  0  0  0  0  0  0
    5.2796    0.8721   19.4148 C   0  0  0  0  0  0  0  0  0  0  0  0
    5.8323    0.5465   20.5157 C   0  0  0  0  0  0  0  0  0  0  0  0
    5.4802    0.6564   21.5068 H   0  0  0  0  0  0  0  0  0  0  0  0
 20 21  2  0  0  0  0
 19 20  1  0  0  0  0
 21 22  1  0  0  0  0
 18 19  2  0  0  0  0
 22 23  2  0  0  0  0
 18 23  1  0  0  0  0
 17 18  1  0  0  0  0
 23 24  1  0  0  0  0
 15 16  2  0  0  0  0
 15 17  1  0  0  0  0
 14 15  1  0  0  0  0
  8 14  2  3  0  0  0
  8 13  1  0  0  0  0
 12 13  1  0  0  0  0
  7  8  1  0  0  0  0
 10 12  1  0  0  0  0
  6  7  3  0  0  0  0
 10 11  1  0  0  0  0
  9 10  1  0  0  0  0
  5  6  1  0  0  0  0
  2  5  1  0  0  0  0
  2  3  2  0  0  0  0
  1  2  2  0  0  0  0
  2  4  1  0  0  0  0
M  CHG  2   4  -1  10  -1
M  END
> <Shapegauss>
-259.163330

$$$$
