MODEL 1
REMARK VINA RESULT:    -6.417      0.000      0.000
REMARK INTER + INTRA:          -9.702
REMARK INTER:                  -9.043
REMARK INTRA:                  -0.659
REMARK UNBOUND:                -0.659
REMARK  7 active torsions:
REMARK  status: ('A' for Active; 'I' for Inactive)
REMARK    1  A    between atoms: S_2  and  N_5 
REMARK    2  A    between atoms: N_5  and  C_7 
REMARK    3  A    between atoms: C_8  and  C_9 
REMARK    4  A    between atoms: C_9  and  C_12 
REMARK    5  A    between atoms: C_11  and  C_12 
REMARK    6  A    between atoms: C_13  and  C_14 
REMARK       I    between atoms: C_14  and  N_16 
REMARK    7  A    between atoms: N_16  and  C_18 
ROOT
HETATM    1  C   UNL     1       7.847  -4.434  24.231  1.00  0.00     0.021 C 
HETATM    2  C   UNL     1       8.652  -3.477  23.944  1.00  0.00     0.094 C 
ENDROOT
BRANCH   1   3
HETATM    3  C   UNL     1       7.840  -5.053  25.398  1.00  0.00    -0.043 C 
HETATM    4  C   UNL     1       7.707  -5.422  26.410  1.00  0.00     0.028 C 
BRANCH   4   5
HETATM    5  N   UNL     1       7.748  -5.980  27.477  1.00  0.00    -0.223 N 
ATOM      6  HN  UNL     1       8.674  -6.246  27.811  1.00  0.00     0.192 HD
BRANCH   5   7
HETATM    7  S   UNL     1       6.526  -6.352  28.425  1.00  0.00     0.216 S 
HETATM    8  O   UNL     1       7.070  -7.424  29.352  1.00  0.00    -0.577 OA
HETATM    9  O   UNL     1       6.120  -5.202  29.183  1.00  0.00    -0.577 OA
HETATM   10  O   UNL     1       5.422  -6.856  27.647  1.00  0.00    -0.577 OA
ENDBRANCH   5   7
ENDBRANCH   4   5
ENDBRANCH   1   3
BRANCH   1  11
HETATM   11  C   UNL     1       6.926  -4.553  23.219  1.00  0.00    -0.006 C 
BRANCH  11  12
HETATM   12  C   UNL     1       6.794  -4.540  22.145  1.00  0.00     0.024 C 
HETATM   13  C   UNL     1       6.716  -6.024  21.547  1.00  0.00     0.009 C 
ENDBRANCH  11  12
ENDBRANCH   1  11
BRANCH   2  14
HETATM   14  C   UNL     1       9.284  -2.331  24.178  1.00  0.00     0.247 C 
HETATM   15  O   UNL     1       9.118  -1.754  25.215  1.00  0.00    -0.268 OA
HETATM   16  N   UNL     1      10.115  -2.010  23.143  1.00  0.00    -0.322 N 
ATOM     17  HN  UNL     1      10.245  -2.586  22.311  1.00  0.00     0.169 HD
BRANCH  16  18
HETATM   18  C   UNL     1      10.721  -0.879  23.351  1.00  0.00     0.050 A 
HETATM   19  C   UNL     1      10.345   0.378  23.220  1.00  0.00     0.117 A 
HETATM   20  N   UNL     1      10.587   1.469  23.443  1.00  0.00    -0.373 N 
HETATM   21  C   UNL     1      11.748   1.376  23.981  1.00  0.00     0.088 A 
ATOM     22  HN  UNL     1      10.027   2.302  23.262  1.00  0.00     0.164 HD
HETATM   23  C   UNL     1      12.365   0.364  24.192  1.00  0.00     0.019 A 
HETATM   24  C   UNL     1      12.088  -0.861  23.980  1.00  0.00     0.032 A 
ENDBRANCH  16  18
ENDBRANCH   2  14
TORSDOF 7
ENDMDL
MODEL 2
REMARK VINA RESULT:    -6.361      4.465      5.918
REMARK INTER + INTRA:          -9.623
REMARK INTER:                  -8.889
REMARK INTRA:                  -0.734
REMARK UNBOUND:                -0.659
REMARK  7 active torsions:
REMARK  status: ('A' for Active; 'I' for Inactive)
REMARK    1  A    between atoms: S_2  and  N_5 
REMARK    2  A    between atoms: N_5  and  C_7 
REMARK    3  A    between atoms: C_8  and  C_9 
REMARK    4  A    between atoms: C_9  and  C_12 
REMARK    5  A    between atoms: C_11  and  C_12 
REMARK    6  A    between atoms: C_13  and  C_14 
REMARK       I    between atoms: C_14  and  N_16 
REMARK    7  A    between atoms: N_16  and  C_18 
ROOT
HETATM    1  C   UNL     1       9.294  -1.871  23.001  1.00  0.00     0.021 C 
HETATM    2  C   UNL     1       8.911  -0.867  22.301  1.00  0.00     0.094 C 
ENDROOT
BRANCH   1   3
HETATM    3  C   UNL     1       8.540  -2.935  23.220  1.00  0.00    -0.043 C 
HETATM    4  C   UNL     1       7.817  -3.688  23.515  1.00  0.00     0.028 C 
BRANCH   4   5
HETATM    5  N   UNL     1       7.168  -4.680  23.729  1.00  0.00    -0.223 N 
ATOM      6  HN  UNL     1       7.252  -5.081  24.663  1.00  0.00     0.192 HD
BRANCH   5   7
HETATM    7  S   UNL     1       6.196  -5.440  22.724  1.00  0.00     0.216 S 
HETATM    8  O   UNL     1       7.123  -6.192  21.786  1.00  0.00    -0.577 OA
HETATM    9  O   UNL     1       5.365  -6.364  23.443  1.00  0.00    -0.577 OA
HETATM   10  O   UNL     1       5.386  -4.494  21.999  1.00  0.00    -0.577 OA
ENDBRANCH   5   7
ENDBRANCH   4   5
ENDBRANCH   1   3
BRANCH   1  11
HETATM   11  C   UNL     1      10.624  -1.717  23.302  1.00  0.00    -0.006 C 
BRANCH  11  12
HETATM   12  C   UNL     1      11.608  -1.556  22.880  1.00  0.00     0.024 C 
HETATM   13  C   UNL     1      12.520  -0.662  23.847  1.00  0.00     0.009 C 
ENDBRANCH  11  12
ENDBRANCH   1  11
BRANCH   2  14
HETATM   14  C   UNL     1       8.365  -0.284  21.238  1.00  0.00     0.247 C 
HETATM   15  O   UNL     1       9.011   0.468  20.566  1.00  0.00    -0.268 OA
HETATM   16  N   UNL     1       7.082  -0.713  21.050  1.00  0.00    -0.322 N 
ATOM     17  HN  UNL     1       6.615  -1.404  21.638  1.00  0.00     0.169 HD
BRANCH  16  18
HETATM   18  C   UNL     1       6.530  -0.131  20.027  1.00  0.00     0.050 A 
HETATM   19  C   UNL     1       6.302  -0.519  18.788  1.00  0.00     0.117 A 
HETATM   20  N   UNL     1       5.761  -0.300  17.809  1.00  0.00    -0.373 N 
HETATM   21  C   UNL     1       5.232   0.843  18.052  1.00  0.00     0.088 A 
ATOM     22  HN  UNL     1       5.712  -0.865  16.961  1.00  0.00     0.164 HD
HETATM   23  C   UNL     1       5.303   1.466  19.079  1.00  0.00     0.019 A 
HETATM   24  C   UNL     1       5.874   1.214  20.190  1.00  0.00     0.032 A 
ENDBRANCH  16  18
ENDBRANCH   2  14
TORSDOF 7
ENDMDL
MODEL 3
REMARK VINA RESULT:    -6.266      4.296      7.739
REMARK INTER + INTRA:          -9.489
REMARK INTER:                  -8.840
REMARK INTRA:                  -0.649
REMARK UNBOUND:                -0.659
REMARK  7 active torsions:
REMARK  status: ('A' for Active; 'I' for Inactive)
REMARK    1  A    between atoms: S_2  and  N_5 
REMARK    2  A    between atoms: N_5  and  C_7 
REMARK    3  A    between atoms: C_8  and  C_9 
REMARK    4  A    between atoms: C_9  and  C_12 
REMARK    5  A    between atoms: C_11  and  C_12 
REMARK    6  A    between atoms: C_13  and  C_14 
REMARK       I    between atoms: C_14  and  N_16 
REMARK    7  A    between atoms: N_16  and  C_18 
ROOT
HETATM    1  C   UNL     1       9.187  -1.192  22.192  1.00  0.00     0.021 C 
HETATM    2  C   UNL     1       9.260  -2.081  23.115  1.00  0.00     0.094 C 
ENDROOT
BRANCH   1   3
HETATM    3  C   UNL     1       8.095  -0.968  21.484  1.00  0.00    -0.043 C 
HETATM    4  C   UNL     1       7.102  -0.811  21.073  1.00  0.00     0.028 C 
BRANCH   4   5
HETATM    5  N   UNL     1       6.118  -0.643  20.399  1.00  0.00    -0.223 N 
ATOM      6  HN  UNL     1       5.233  -0.936  20.813  1.00  0.00     0.192 HD
BRANCH   5   7
HETATM    7  S   UNL     1       6.038  -0.018  18.938  1.00  0.00     0.216 S 
HETATM    8  O   UNL     1       4.820   0.889  18.974  1.00  0.00    -0.577 OA
HETATM    9  O   UNL     1       7.219   0.751  18.663  1.00  0.00    -0.577 OA
HETATM   10  O   UNL     1       5.874  -1.059  17.955  1.00  0.00    -0.577 OA
ENDBRANCH   5   7
ENDBRANCH   4   5
ENDBRANCH   1   3
BRANCH   1  11
HETATM   11  C   UNL     1      10.336  -0.440  22.213  1.00  0.00    -0.006 C 
BRANCH  11  12
HETATM   12  C   UNL     1      10.849   0.366  22.721  1.00  0.00     0.024 C 
HETATM   13  C   UNL     1      10.547   1.779  22.029  1.00  0.00     0.009 C 
ENDBRANCH  11  12
ENDBRANCH   1  11
BRANCH   2  14
HETATM   14  C   UNL     1       8.830  -2.725  24.196  1.00  0.00     0.247 C 
HETATM   15  O   UNL     1       8.912  -2.212  25.275  1.00  0.00    -0.268 OA
HETATM   16  N   UNL     1       8.281  -3.930  23.860  1.00  0.00    -0.322 N 
ATOM     17  HN  UNL     1       8.197  -4.277  22.905  1.00  0.00     0.169 HD
BRANCH  16  18
HETATM   18  C   UNL     1       7.880  -4.580  24.912  1.00  0.00     0.050 A 
HETATM   19  C   UNL     1       8.516  -5.257  25.846  1.00  0.00     0.117 A 
HETATM   20  N   UNL     1       8.449  -5.761  26.867  1.00  0.00    -0.373 N 
HETATM   21  C   UNL     1       7.197  -5.653  27.130  1.00  0.00     0.088 A 
ATOM     22  HN  UNL     1       9.189  -6.186  27.424  1.00  0.00     0.164 HD
HETATM   23  C   UNL     1       6.361  -5.123  26.446  1.00  0.00     0.019 A 
HETATM   24  C   UNL     1       6.432  -4.527  25.322  1.00  0.00     0.032 A 
ENDBRANCH  16  18
ENDBRANCH   2  14
TORSDOF 7
ENDMDL
MODEL 4
REMARK VINA RESULT:    -5.815     14.321     16.511
REMARK INTER + INTRA:          -8.853
REMARK INTER:                  -8.131
REMARK INTRA:                  -0.722
REMARK UNBOUND:                -0.659
REMARK  7 active torsions:
REMARK  status: ('A' for Active; 'I' for Inactive)
REMARK    1  A    between atoms: S_2  and  N_5 
REMARK    2  A    between atoms: N_5  and  C_7 
REMARK    3  A    between atoms: C_8  and  C_9 
REMARK    4  A    between atoms: C_9  and  C_12 
REMARK    5  A    between atoms: C_11  and  C_12 
REMARK    6  A    between atoms: C_13  and  C_14 
REMARK       I    between atoms: C_14  and  N_16 
REMARK    7  A    between atoms: N_16  and  C_18 
ROOT
HETATM    1  C   UNL     1      24.611  -6.552  25.280  1.00  0.00     0.021 C 
HETATM    2  C   UNL     1      23.840  -5.527  25.285  1.00  0.00     0.094 C 
ENDROOT
BRANCH   1   3
HETATM    3  C   UNL     1      24.862  -7.268  24.198  1.00  0.00    -0.043 C 
HETATM    4  C   UNL     1      25.240  -7.760  23.307  1.00  0.00     0.028 C 
BRANCH   4   5
HETATM    5  N   UNL     1      25.430  -8.394  22.301  1.00  0.00    -0.223 N 
ATOM      6  HN  UNL     1      25.508  -9.405  22.413  1.00  0.00     0.192 HD
BRANCH   5   7
HETATM    7  S   UNL     1      25.574  -7.838  20.817  1.00  0.00     0.216 S 
HETATM    8  O   UNL     1      24.494  -6.778  20.696  1.00  0.00    -0.577 OA
HETATM    9  O   UNL     1      26.869  -7.248  20.634  1.00  0.00    -0.577 OA
HETATM   10  O   UNL     1      25.364  -8.897  19.862  1.00  0.00    -0.577 OA
ENDBRANCH   5   7
ENDBRANCH   4   5
ENDBRANCH   1   3
BRANCH   1  11
HETATM   11  C   UNL     1      25.233  -6.642  26.501  1.00  0.00    -0.006 C 
BRANCH  11  12
HETATM   12  C   UNL     1      26.051  -6.264  27.100  1.00  0.00     0.024 C 
HETATM   13  C   UNL     1      27.046  -7.439  27.540  1.00  0.00     0.009 C 
ENDBRANCH  11  12
ENDBRANCH   1  11
BRANCH   2  14
HETATM   14  C   UNL     1      23.383  -4.368  24.819  1.00  0.00     0.247 C 
HETATM   15  O   UNL     1      23.634  -4.030  23.697  1.00  0.00    -0.268 OA
HETATM   16  N   UNL     1      22.607  -3.739  25.750  1.00  0.00    -0.322 N 
ATOM     17  HN  UNL     1      22.392  -4.120  26.672  1.00  0.00     0.169 HD
BRANCH  16  18
HETATM   18  C   UNL     1      22.175  -2.593  25.314  1.00  0.00     0.050 A 
HETATM   19  C   UNL     1      21.067  -2.225  24.702  1.00  0.00     0.117 A 
HETATM   20  N   UNL     1      20.414  -1.354  24.363  1.00  0.00    -0.373 N 
HETATM   21  C   UNL     1      21.146  -0.344  24.665  1.00  0.00     0.088 A 
ATOM     22  HN  UNL     1      19.490  -1.373  23.931  1.00  0.00     0.164 HD
HETATM   23  C   UNL     1      22.227  -0.371  25.192  1.00  0.00     0.019 A 
HETATM   24  C   UNL     1      22.948  -1.335  25.608  1.00  0.00     0.032 A 
ENDBRANCH  16  18
ENDBRANCH   2  14
TORSDOF 7
ENDMDL
MODEL 5
REMARK VINA RESULT:    -5.748      2.796      3.667
REMARK INTER + INTRA:          -8.759
REMARK INTER:                  -8.026
REMARK INTRA:                  -0.734
REMARK UNBOUND:                -0.659
REMARK  7 active torsions:
REMARK  status: ('A' for Active; 'I' for Inactive)
REMARK    1  A    between atoms: S_2  and  N_5 
REMARK    2  A    between atoms: N_5  and  C_7 
REMARK    3  A    between atoms: C_8  and  C_9 
REMARK    4  A    between atoms: C_9  and  C_12 
REMARK    5  A    between atoms: C_11  and  C_12 
REMARK    6  A    between atoms: C_13  and  C_14 
REMARK       I    between atoms: C_14  and  N_16 
REMARK    7  A    between atoms: N_16  and  C_18 
ROOT
HETATM    1  C   UNL     1       4.688  -6.213  24.448  1.00  0.00     0.021 C 
HETATM    2  C   UNL     1       5.578  -5.858  23.594  1.00  0.00     0.094 C 
ENDROOT
BRANCH   1   3
HETATM    3  C   UNL     1       4.969  -6.534  25.699  1.00  0.00    -0.043 C 
HETATM    4  C   UNL     1       5.005  -6.829  26.743  1.00  0.00     0.028 C 
BRANCH   4   5
HETATM    5  N   UNL     1       5.279  -7.078  27.889  1.00  0.00    -0.223 N 
ATOM      6  HN  UNL     1       4.676  -7.752  28.360  1.00  0.00     0.192 HD
BRANCH   5   7
HETATM    7  S   UNL     1       6.473  -6.478  28.754  1.00  0.00     0.216 S 
HETATM    8  O   UNL     1       6.963  -7.644  29.594  1.00  0.00    -0.577 OA
HETATM    9  O   UNL     1       7.523  -6.014  27.892  1.00  0.00    -0.577 OA
HETATM   10  O   UNL     1       5.996  -5.406  29.590  1.00  0.00    -0.577 OA
ENDBRANCH   5   7
ENDBRANCH   4   5
ENDBRANCH   1   3
BRANCH   1  11
HETATM   11  C   UNL     1       3.446  -6.024  23.894  1.00  0.00    -0.006 C 
BRANCH  11  12
HETATM   12  C   UNL     1       2.694  -5.284  23.656  1.00  0.00     0.024 C 
HETATM   13  C   UNL     1       1.422  -5.950  22.947  1.00  0.00     0.009 C 
ENDBRANCH  11  12
ENDBRANCH   1  11
BRANCH   2  14
HETATM   14  C   UNL     1       6.636  -5.166  23.183  1.00  0.00     0.247 C 
HETATM   15  O   UNL     1       7.476  -5.695  22.511  1.00  0.00    -0.268 OA
HETATM   16  N   UNL     1       6.555  -3.863  23.583  1.00  0.00    -0.322 N 
ATOM     17  HN  UNL     1       5.774  -3.471  24.110  1.00  0.00     0.169 HD
BRANCH  16  18
HETATM   18  C   UNL     1       7.598  -3.183  23.207  1.00  0.00     0.050 A 
HETATM   19  C   UNL     1       7.818  -2.361  22.201  1.00  0.00     0.117 A 
HETATM   20  N   UNL     1       8.517  -1.584  21.745  1.00  0.00    -0.373 N 
HETATM   21  C   UNL     1       9.513  -1.622  22.553  1.00  0.00     0.088 A 
ATOM     22  HN  UNL     1       8.385  -1.010  20.913  1.00  0.00     0.164 HD
HETATM   23  C   UNL     1       9.617  -2.307  23.537  1.00  0.00     0.019 A 
HETATM   24  C   UNL     1       8.827  -3.151  24.074  1.00  0.00     0.032 A 
ENDBRANCH  16  18
ENDBRANCH   2  14
TORSDOF 7
ENDMDL
MODEL 6
REMARK VINA RESULT:    -5.668      4.686      8.004
REMARK INTER + INTRA:          -8.646
REMARK INTER:                  -7.982
REMARK INTRA:                  -0.664
REMARK UNBOUND:                -0.659
REMARK  7 active torsions:
REMARK  status: ('A' for Active; 'I' for Inactive)
REMARK    1  A    between atoms: S_2  and  N_5 
REMARK    2  A    between atoms: N_5  and  C_7 
REMARK    3  A    between atoms: C_8  and  C_9 
REMARK    4  A    between atoms: C_9  and  C_12 
REMARK    5  A    between atoms: C_11  and  C_12 
REMARK    6  A    between atoms: C_13  and  C_14 
REMARK       I    between atoms: C_14  and  N_16 
REMARK    7  A    between atoms: N_16  and  C_18 
ROOT
HETATM    1  C   UNL     1       7.412   0.421  21.021  1.00  0.00     0.021 C 
HETATM    2  C   UNL     1       6.820  -0.562  21.596  1.00  0.00     0.094 C 
ENDROOT
BRANCH   1   3
HETATM    3  C   UNL     1       8.542   0.945  21.460  1.00  0.00    -0.043 C 
HETATM    4  C   UNL     1       9.382   1.549  21.790  1.00  0.00     0.028 C 
BRANCH   4   5
HETATM    5  N   UNL     1      10.436   2.004  22.155  1.00  0.00    -0.223 N 
ATOM      6  HN  UNL     1      11.161   2.090  21.443  1.00  0.00     0.192 HD
BRANCH   5   7
HETATM    7  S   UNL     1      10.829   2.486  23.620  1.00  0.00     0.216 S 
HETATM    8  O   UNL     1      11.989   1.592  24.020  1.00  0.00    -0.577 OA
HETATM    9  O   UNL     1      11.249   3.858  23.593  1.00  0.00    -0.577 OA
HETATM   10  O   UNL     1       9.715   2.317  24.519  1.00  0.00    -0.577 OA
ENDBRANCH   5   7
ENDBRANCH   4   5
ENDBRANCH   1   3
BRANCH   1  11
HETATM   11  C   UNL     1       6.779   0.680  19.830  1.00  0.00    -0.006 C 
BRANCH  11  12
HETATM   12  C   UNL     1       6.889   0.659  18.754  1.00  0.00     0.024 C 
HETATM   13  C   UNL     1       5.644  -0.064  18.053  1.00  0.00     0.009 C 
ENDBRANCH  11  12
ENDBRANCH   1  11
BRANCH   2  14
HETATM   14  C   UNL     1       6.766  -1.762  22.166  1.00  0.00     0.247 C 
HETATM   15  O   UNL     1       7.616  -2.098  22.940  1.00  0.00    -0.268 OA
HETATM   16  N   UNL     1       5.642  -2.436  21.782  1.00  0.00    -0.322 N 
ATOM     17  HN  UNL     1       4.931  -2.058  21.157  1.00  0.00     0.169 HD
BRANCH  16  18
HETATM   18  C   UNL     1       5.592  -3.621  22.315  1.00  0.00     0.050 A 
HETATM   19  C   UNL     1       4.984  -4.102  23.380  1.00  0.00     0.117 A 
HETATM   20  N   UNL     1       4.672  -5.035  23.955  1.00  0.00    -0.373 N 
HETATM   21  C   UNL     1       5.235  -5.964  23.272  1.00  0.00     0.088 A 
ATOM     22  HN  UNL     1       4.096  -5.112  24.793  1.00  0.00     0.164 HD
HETATM   23  C   UNL     1       5.893  -5.826  22.274  1.00  0.00     0.019 A 
HETATM   24  C   UNL     1       6.217  -4.792  21.604  1.00  0.00     0.032 A 
ENDBRANCH  16  18
ENDBRANCH   2  14
TORSDOF 7
ENDMDL
MODEL 7
REMARK VINA RESULT:    -5.564      5.247      8.757
REMARK INTER + INTRA:          -8.500
REMARK INTER:                  -7.897
REMARK INTRA:                  -0.603
REMARK UNBOUND:                -0.659
REMARK  7 active torsions:
REMARK  status: ('A' for Active; 'I' for Inactive)
REMARK    1  A    between atoms: S_2  and  N_5 
REMARK    2  A    between atoms: N_5  and  C_7 
REMARK    3  A    between atoms: C_8  and  C_9 
REMARK    4  A    between atoms: C_9  and  C_12 
REMARK    5  A    between atoms: C_11  and  C_12 
REMARK    6  A    between atoms: C_13  and  C_14 
REMARK       I    between atoms: C_14  and  N_16 
REMARK    7  A    between atoms: N_16  and  C_18 
ROOT
HETATM    1  C   UNL     1       4.663  -6.143  24.523  1.00  0.00     0.021 C 
HETATM    2  C   UNL     1       3.496  -6.113  23.990  1.00  0.00     0.094 C 
ENDROOT
BRANCH   1   3
HETATM    3  C   UNL     1       4.871  -6.400  25.803  1.00  0.00    -0.043 C 
HETATM    4  C   UNL     1       5.149  -6.763  26.787  1.00  0.00     0.028 C 
BRANCH   4   5
HETATM    5  N   UNL     1       5.292  -7.000  27.959  1.00  0.00    -0.223 N 
ATOM      6  HN  UNL     1       4.559  -7.555  28.400  1.00  0.00     0.192 HD
BRANCH   5   7
HETATM    7  S   UNL     1       6.492  -6.547  28.902  1.00  0.00     0.216 S 
HETATM    8  O   UNL     1       6.917  -7.816  29.620  1.00  0.00    -0.577 OA
HETATM    9  O   UNL     1       7.577  -6.040  28.111  1.00  0.00    -0.577 OA
HETATM   10  O   UNL     1       6.043  -5.550  29.840  1.00  0.00    -0.577 OA
ENDBRANCH   5   7
ENDBRANCH   4   5
ENDBRANCH   1   3
BRANCH   1  11
HETATM   11  C   UNL     1       5.604  -6.049  23.528  1.00  0.00    -0.006 C 
BRANCH  11  12
HETATM   12  C   UNL     1       6.334  -5.396  23.068  1.00  0.00     0.024 C 
HETATM   13  C   UNL     1       7.134  -6.143  21.900  1.00  0.00     0.009 C 
ENDBRANCH  11  12
ENDBRANCH   1  11
BRANCH   2  14
HETATM   14  C   UNL     1       2.274  -6.581  23.751  1.00  0.00     0.247 C 
HETATM   15  O   UNL     1       1.378  -6.335  24.508  1.00  0.00    -0.268 OA
HETATM   16  N   UNL     1       2.236  -7.270  22.573  1.00  0.00    -0.322 N 
ATOM     17  HN  UNL     1       3.036  -7.390  21.952  1.00  0.00     0.169 HD
BRANCH  16  18
HETATM   18  C   UNL     1       1.051  -7.753  22.342  1.00  0.00     0.050 A 
HETATM   19  C   UNL     1       0.442  -8.857  22.723  1.00  0.00     0.117 A 
HETATM   20  N   UNL     1      -0.546  -9.422  22.789  1.00  0.00    -0.373 N 
HETATM   21  C   UNL     1      -1.338  -8.641  22.150  1.00  0.00     0.088 A 
ATOM     22  HN  UNL     1      -0.747 -10.315  23.239  1.00  0.00     0.164 HD
HETATM   23  C   UNL     1      -1.058  -7.583  21.650  1.00  0.00     0.019 A 
HETATM   24  C   UNL     1       0.033  -6.927  21.601  1.00  0.00     0.032 A 
ENDBRANCH  16  18
ENDBRANCH   2  14
TORSDOF 7
ENDMDL
MODEL 8
REMARK VINA RESULT:    -5.545     13.962     16.019
REMARK INTER + INTRA:          -8.473
REMARK INTER:                  -7.701
REMARK INTRA:                  -0.771
REMARK UNBOUND:                -0.659
REMARK  7 active torsions:
REMARK  status: ('A' for Active; 'I' for Inactive)
REMARK    1  A    between atoms: S_2  and  N_5 
REMARK    2  A    between atoms: N_5  and  C_7 
REMARK    3  A    between atoms: C_8  and  C_9 
REMARK    4  A    between atoms: C_9  and  C_12 
REMARK    5  A    between atoms: C_11  and  C_12 
REMARK    6  A    between atoms: C_13  and  C_14 
REMARK       I    between atoms: C_14  and  N_16 
REMARK    7  A    between atoms: N_16  and  C_18 
ROOT
HETATM    1  C   UNL     1      24.273  -2.781  19.920  1.00  0.00     0.021 C 
HETATM    2  C   UNL     1      23.789  -2.074  20.875  1.00  0.00     0.094 C 
ENDROOT
BRANCH   1   3
HETATM    3  C   UNL     1      24.382  -4.097  19.972  1.00  0.00    -0.043 C 
HETATM    4  C   UNL     1      24.290  -5.178  19.940  1.00  0.00     0.028 C 
BRANCH   4   5
HETATM    5  N   UNL     1      24.397  -6.374  20.035  1.00  0.00    -0.223 N 
ATOM      6  HN  UNL     1      23.920  -6.927  19.323  1.00  0.00     0.192 HD
BRANCH   5   7
HETATM    7  S   UNL     1      25.195  -7.192  21.142  1.00  0.00     0.216 S 
HETATM    8  O   UNL     1      24.934  -6.444  22.437  1.00  0.00    -0.577 OA
HETATM    9  O   UNL     1      24.683  -8.530  21.232  1.00  0.00    -0.577 OA
HETATM   10  O   UNL     1      26.602  -7.211  20.834  1.00  0.00    -0.577 OA
ENDBRANCH   5   7
ENDBRANCH   4   5
ENDBRANCH   1   3
BRANCH   1  11
HETATM   11  C   UNL     1      24.468  -1.972  18.828  1.00  0.00    -0.006 C 
BRANCH  11  12
HETATM   12  C   UNL     1      24.360  -1.905  17.753  1.00  0.00     0.024 C 
HETATM   13  C   UNL     1      22.931  -1.308  17.346  1.00  0.00     0.009 C 
ENDBRANCH  11  12
ENDBRANCH   1  11
BRANCH   2  14
HETATM   14  C   UNL     1      22.894  -1.777  21.812  1.00  0.00     0.247 C 
HETATM   15  O   UNL     1      21.749  -1.590  21.512  1.00  0.00    -0.268 OA
HETATM   16  N   UNL     1      23.463  -1.785  23.053  1.00  0.00    -0.322 N 
ATOM     17  HN  UNL     1      24.442  -2.010  23.235  1.00  0.00     0.169 HD
BRANCH  16  18
HETATM   18  C   UNL     1      22.601  -1.471  23.974  1.00  0.00     0.050 A 
HETATM   19  C   UNL     1      21.854  -2.190  24.787  1.00  0.00     0.117 A 
HETATM   20  N   UNL     1      21.180  -2.190  25.707  1.00  0.00    -0.373 N 
HETATM   21  C   UNL     1      21.095  -0.937  25.969  1.00  0.00     0.088 A 
ATOM     22  HN  UNL     1      20.755  -2.979  26.193  1.00  0.00     0.164 HD
HETATM   23  C   UNL     1      21.631  -0.038  25.375  1.00  0.00     0.019 A 
HETATM   24  C   UNL     1      22.415  -0.030  24.370  1.00  0.00     0.032 A 
ENDBRANCH  16  18
ENDBRANCH   2  14
TORSDOF 7
ENDMDL
MODEL 9
REMARK VINA RESULT:    -5.422      4.531      7.540
REMARK INTER + INTRA:          -8.300
REMARK INTER:                  -7.637
REMARK INTRA:                  -0.662
REMARK UNBOUND:                -0.659
REMARK  7 active torsions:
REMARK  status: ('A' for Active; 'I' for Inactive)
REMARK    1  A    between atoms: S_2  and  N_5 
REMARK    2  A    between atoms: N_5  and  C_7 
REMARK    3  A    between atoms: C_8  and  C_9 
REMARK    4  A    between atoms: C_9  and  C_12 
REMARK    5  A    between atoms: C_11  and  C_12 
REMARK    6  A    between atoms: C_13  and  C_14 
REMARK       I    between atoms: C_14  and  N_16 
REMARK    7  A    between atoms: N_16  and  C_18 
ROOT
HETATM    1  C   UNL     1       7.710   0.269  21.222  1.00  0.00     0.021 C 
HETATM    2  C   UNL     1       7.363  -0.748  21.923  1.00  0.00     0.094 C 
ENDROOT
BRANCH   1   3
HETATM    3  C   UNL     1       8.683   1.094  21.570  1.00  0.00    -0.043 C 
HETATM    4  C   UNL     1       9.599   1.642  21.765  1.00  0.00     0.028 C 
BRANCH   4   5
HETATM    5  N   UNL     1      10.472   2.389  22.127  1.00  0.00    -0.223 N 
ATOM      6  HN  UNL     1      10.976   2.884  21.391  1.00  0.00     0.192 HD
BRANCH   5   7
HETATM    7  S   UNL     1      10.933   2.691  23.620  1.00  0.00     0.216 S 
HETATM    8  O   UNL     1      11.882   3.869  23.498  1.00  0.00    -0.577 OA
HETATM    9  O   UNL     1       9.799   3.050  24.424  1.00  0.00    -0.577 OA
HETATM   10  O   UNL     1      11.604   1.545  24.179  1.00  0.00    -0.577 OA
ENDBRANCH   5   7
ENDBRANCH   4   5
ENDBRANCH   1   3
BRANCH   1  11
HETATM   11  C   UNL     1       7.043   0.227  20.023  1.00  0.00    -0.006 C 
BRANCH  11  12
HETATM   12  C   UNL     1       7.162   0.098  18.955  1.00  0.00     0.024 C 
HETATM   13  C   UNL     1       5.938   0.743  18.148  1.00  0.00     0.009 C 
ENDBRANCH  11  12
ENDBRANCH   1  11
BRANCH   2  14
HETATM   14  C   UNL     1       7.591  -1.849  22.633  1.00  0.00     0.247 C 
HETATM   15  O   UNL     1       8.244  -2.740  22.168  1.00  0.00    -0.268 OA
HETATM   16  N   UNL     1       7.044  -1.748  23.880  1.00  0.00    -0.322 N 
ATOM     17  HN  UNL     1       6.546  -0.927  24.224  1.00  0.00     0.169 HD
BRANCH  16  18
HETATM   18  C   UNL     1       7.239  -2.830  24.575  1.00  0.00     0.050 A 
HETATM   19  C   UNL     1       6.750  -4.050  24.492  1.00  0.00     0.117 A 
HETATM   20  N   UNL     1       6.837  -5.133  24.837  1.00  0.00    -0.373 N 
HETATM   21  C   UNL     1       7.761  -5.053  25.722  1.00  0.00     0.088 A 
ATOM     22  HN  UNL     1       6.315  -5.952  24.524  1.00  0.00     0.164 HD
HETATM   23  C   UNL     1       8.364  -4.063  26.047  1.00  0.00     0.019 A 
HETATM   24  C   UNL     1       8.300  -2.857  25.643  1.00  0.00     0.032 A 
ENDBRANCH  16  18
ENDBRANCH   2  14
TORSDOF 7
ENDMDL
