REMARK  7 active torsions:
REMARK  status: ('A' for Active; 'I' for Inactive)
REMARK    1  A    between atoms: S_2  and  N_5 
REMARK    2  A    between atoms: N_5  and  C_7 
REMARK    3  A    between atoms: C_8  and  C_9 
REMARK    4  A    between atoms: C_9  and  C_12 
REMARK    5  A    between atoms: C_11  and  C_12 
REMARK    6  A    between atoms: C_13  and  C_14 
REMARK       I    between atoms: C_14  and  N_16 
REMARK    7  A    between atoms: N_16  and  C_18 
ROOT
HETATM    1  C   UNL     1      10.168  -1.435  22.984  1.00  0.00     0.021 C 
HETATM    2  C   UNL     1       9.792  -0.469  22.228  1.00  0.00     0.094 C 
ENDROOT
BRANCH   1   3
HETATM    3  C   UNL     1       9.326  -2.224  23.628  1.00  0.00    -0.043 C 
HETATM    4  C   UNL     1       8.791  -2.989  24.182  1.00  0.00     0.028 C 
BRANCH   4   5
HETATM    5  N   UNL     1       7.997  -3.710  24.730  1.00  0.00    -0.223 N 
ATOM      6  HN  UNL     1       7.123  -3.879  24.232  1.00  0.00     0.192 HD
BRANCH   5   7
HETATM    7  S   UNL     1       8.152  -4.429  26.141  1.00  0.00     0.216 S 
HETATM    8  O   UNL     1       6.764  -4.956  26.459  1.00  0.00    -0.577 OA
HETATM    9  O   UNL     1       9.083  -5.517  26.042  1.00  0.00    -0.577 OA
HETATM   10  O   UNL     1       8.585  -3.485  27.140  1.00  0.00    -0.577 OA
ENDBRANCH   5   7
ENDBRANCH   4   5
ENDBRANCH   1   3
BRANCH   1  11
HETATM   11  C   UNL     1      11.525  -1.596  22.851  1.00  0.00    -0.006 C 
BRANCH  11  12
HETATM   12  C   UNL     1      12.486  -1.127  23.017  1.00  0.00     0.024 C 
HETATM   13  C   UNL     1      12.354   0.159  23.962  1.00  0.00     0.009 C 
ENDBRANCH  11  12
ENDBRANCH   1  11
BRANCH   2  14
HETATM   14  C   UNL     1       9.059   0.087  21.268  1.00  0.00     0.247 C 
HETATM   15  O   UNL     1       9.471   1.043  20.674  1.00  0.00    -0.268 OA
HETATM   16  N   UNL     1       7.899  -0.607  21.074  1.00  0.00    -0.322 N 
ATOM     17  HN  UNL     1       7.642  -1.451  21.586  1.00  0.00     0.169 HD
BRANCH  16  18
HETATM   18  C   UNL     1       7.163  -0.057  20.154  1.00  0.00     0.050 A 
HETATM   19  C   UNL     1       7.272   0.018  18.843  1.00  0.00     0.117 A 
HETATM   20  N   UNL     1       6.757   0.283  17.861  1.00  0.00    -0.373 N 
HETATM   21  C   UNL     1       5.643   0.769  18.272  1.00  0.00     0.088 A 
ATOM     22  HN  UNL     1       7.094   0.165  16.906  1.00  0.00     0.164 HD
HETATM   23  C   UNL     1       5.280   0.872  19.415  1.00  0.00     0.019 A 
HETATM   24  C   UNL     1       5.832   0.546  20.516  1.00  0.00     0.032 A 
ENDBRANCH  16  18
ENDBRANCH   2  14
TORSDOF 7
