stable:False satoms:7 tatoms:24 sratio:0.2916666666666667
  -OEChem-08062415553D

 45 46  0     1  0  0  0  0  0999 V2000
   -6.7333   -4.7625  -26.6306 C   0  0  0  0  0  0  0  0  0  0  0  0
   -8.3562   -4.3400  -26.2640 S   0  0  0  0  0  0  0  0  0  0  0  0
   -9.1160   -5.5586  -26.2207 O   0  0  0  0  0  0  0  0  0  0  0  0
   -8.8276   -3.4668  -27.2798 O   0  0  0  0  0  0  0  0  0  0  0  0
   -8.3099   -3.6295  -24.7964 N   0  0  0  0  0  0  0  0  0  0  0  0
   -9.1584   -3.0158  -24.2752 C   0  0  0  0  0  0  0  0  0  0  0  0
   -9.6467   -2.0616  -23.6008 C   0  0  0  0  0  0  0  0  0  0  0  0
  -10.5933   -1.2747  -23.3788 C   0  0  2  0  0  0  0  0  0  0  0  0
  -11.4565   -0.2357  -24.3435 C   0  0  0  0  0  0  0  0  0  0  0  0
  -12.4114    0.0397  -24.3018 C   0  0  0  0  0  0  0  0  0  0  0  0
  -13.4933   -0.5881  -23.3717 C   0  0  0  0  0  0  0  0  0  0  0  0
  -12.9807   -1.5753  -22.6613 C   0  0  0  0  0  0  0  0  0  0  0  0
  -12.0767   -2.0681  -22.4975 C   0  0  0  0  0  0  0  0  0  0  0  0
  -10.0131   -0.7640  -22.4527 C   0  0  2  0  0  0  0  0  0  0  0  0
   -9.3804   -0.1016  -21.4646 C   0  0  0  0  0  0  0  0  0  0  0  0
   -9.9193    0.8060  -21.0166 O   0  0  0  0  0  0  0  0  0  0  0  0
   -8.2027   -0.6212  -21.1977 N   0  0  0  0  0  0  0  0  0  0  0  0
   -7.4751   -0.1350  -20.3074 C   0  0  0  0  0  0  0  0  0  0  0  0
   -7.5017   -0.0644  -18.9752 C   0  0  0  0  0  0  0  0  0  0  0  0
   -7.0778    0.2316  -17.8957 N   0  0  0  0  0  0  0  0  0  0  0  0
   -5.9478    0.9243  -18.3931 C   0  0  0  0  0  0  0  0  0  0  0  0
   -5.5815    1.0353  -19.5390 C   0  0  0  0  0  0  0  0  0  0  0  0
   -6.1547    0.6076  -20.6925 C   0  0  0  0  0  0  0  0  0  0  0  0
   -5.6817    0.8306  -22.1535 C   0  0  0  0  0  0  0  0  0  0  0  0
   -6.6944   -5.2500  -27.6159 H   0  0  0  0  0  0  0  0  0  0  0  0
   -6.1127   -3.8545  -26.6462 H   0  0  0  0  0  0  0  0  0  0  0  0
   -6.3525   -5.4538  -25.8644 H   0  0  0  0  0  0  0  0  0  0  0  0
   -7.5318   -3.0029  -24.8405 H   0  0  0  0  0  0  0  0  0  0  0  0
  -10.0347   -3.6059  -24.4994 H   0  0  0  0  0  0  0  0  0  0  0  0
  -11.3933   -1.8890  -22.9398 H   0  0  0  0  0  0  0  0  0  0  0  0
  -10.8900    0.2138  -25.1457 H   0  0  0  0  0  0  0  0  0  0  0  0
  -12.7248    0.8403  -24.9555 H   0  0  0  0  0  0  0  0  0  0  0  0
  -14.3179   -0.9764  -23.9875 H   0  0  0  0  0  0  0  0  0  0  0  0
  -13.8772    0.1857  -22.6906 H   0  0  0  0  0  0  0  0  0  0  0  0
  -13.7512   -2.0183  -22.0478 H   0  0  0  0  0  0  0  0  0  0  0  0
  -12.0279   -2.8881  -21.7964 H   0  0  0  0  0  0  0  0  0  0  0  0
  -11.1889   -1.7586  -23.0291 H   0  0  0  0  0  0  0  0  0  0  0  0
  -10.4433   -1.4826  -21.7396 H   0  0  0  0  0  0  0  0  0  0  0  0
   -7.8856   -1.4164  -21.7146 H   0  0  0  0  0  0  0  0  0  0  0  0
   -8.4358   -0.5500  -18.7342 H   0  0  0  0  0  0  0  0  0  0  0  0
   -5.3344    1.4167  -17.6531 H   0  0  0  0  0  0  0  0  0  0  0  0
   -4.6461    1.5600  -19.6661 H   0  0  0  0  0  0  0  0  0  0  0  0
   -5.0357   -0.0046  -22.4619 H   0  0  0  0  0  0  0  0  0  0  0  0
   -6.5566    0.8821  -22.8183 H   0  0  0  0  0  0  0  0  0  0  0  0
   -5.1175    1.7728  -22.2164 H   0  0  0  0  0  0  0  0  0  0  0  0
 20 21  2  0  0  0  0
 19 20  1  0  0  0  0
 21 22  1  0  0  0  0
 18 19  2  0  0  0  0
 22 23  2  0  0  0  0
 18 23  1  0  0  0  0
 17 18  1  0  0  0  0
 23 24  1  0  0  0  0
 15 16  2  0  0  0  0
 15 17  1  0  0  0  0
 14 15  1  0  0  0  0
  8 14  1  0  0  0  0
  7 14  1  0  0  0  0
 12 13  2  0  0  0  0
 11 12  1  0  0  0  0
  7  8  1  0  0  0  0
  8  9  1  0  0  0  0
 10 11  1  0  0  0  0
  6  7  2  3  0  0  0
  5  6  1  0  0  0  0
  9 10  2  0  0  0  0
  2  5  1  0  0  0  0
  2  3  2  0  0  0  0
  1  2  1  0  0  0  0
  2  4  2  0  0  0  0
  1 25  1  0  0  0  0
  1 26  1  0  0  0  0
  1 27  1  0  0  0  0
  5 28  1  0  0  0  0
  6 29  1  0  0  0  0
  8 30  1  0  0  0  0
  9 31  1  0  0  0  0
 10 32  1  0  0  0  0
 11 33  1  0  0  0  0
 11 34  1  0  0  0  0
 12 35  1  0  0  0  0
 13 36  1  0  0  0  0
 13 37  1  0  0  0  0
 14 38  1  0  0  0  0
 17 39  1  0  0  0  0
 19 40  1  0  0  0  0
 21 41  1  0  0  0  0
 22 42  1  0  0  0  0
 24 43  1  0  0  0  0
 24 44  1  0  0  0  0
 24 45  1  0  0  0  0
M  END
> <Chemgauss4>
-11.993367

$$$$
