stable:False satoms:7 tatoms:24 sratio:0.2916666666666667
  -OEChem-08062415553D

 45 46  0     1  0  0  0  0  0999 V2000
    6.4110   -5.1371   25.9831 C   0  0  0  0  0  0  0  0  0  0  0  0
    8.0204   -4.5733   25.7869 S   0  0  0  0  0  0  0  0  0  0  0  0
    8.8769   -5.7264   25.7572 O   0  0  0  0  0  0  0  0  0  0  0  0
    8.3288   -3.7221   26.8809 O   0  0  0  0  0  0  0  0  0  0  0  0
    8.0461   -3.7912   24.3557 N   0  0  0  0  0  0  0  0  0  0  0  0
    8.8848   -3.0878   23.9434 C   0  0  0  0  0  0  0  0  0  0  0  0
    9.3519   -2.0646   23.3615 C   0  0  0  0  0  0  0  0  0  0  0  0
   10.2479   -1.1971   23.2639 C   0  0  2  0  0  0  0  0  0  0  0  0
   10.9363   -0.1483   24.3508 C   0  0  0  0  0  0  0  0  0  0  0  0
   11.8660    0.2008   24.4097 C   0  0  0  0  0  0  0  0  0  0  0  0
   13.0724   -0.2923   23.5547 C   0  0  0  0  0  0  0  0  0  0  0  0
   12.7055   -1.2764   22.7554 C   0  0  0  0  0  0  0  0  0  0  0  0
   11.8620   -1.8272   22.4868 C   0  0  0  0  0  0  0  0  0  0  0  0
    9.7120   -0.6834   22.3131 C   0  0  2  0  0  0  0  0  0  0  0  0
    9.1172   -0.0194   21.3028 C   0  0  0  0  0  0  0  0  0  0  0  0
    9.6184    0.9491   20.9486 O   0  0  0  0  0  0  0  0  0  0  0  0
    8.0132   -0.6123   20.9052 N   0  0  0  0  0  0  0  0  0  0  0  0
    7.3297   -0.1361   19.9754 C   0  0  0  0  0  0  0  0  0  0  0  0
    7.4675    0.0072   18.6558 C   0  0  0  0  0  0  0  0  0  0  0  0
    7.1176    0.3272   17.5569 N   0  0  0  0  0  0  0  0  0  0  0  0
    5.8962    0.9043   17.9800 C   0  0  0  0  0  0  0  0  0  0  0  0
    5.4228    0.9259   19.0913 C   0  0  0  0  0  0  0  0  0  0  0  0
    5.9252    0.4822   20.2715 C   0  0  0  0  0  0  0  0  0  0  0  0
    5.3091    0.5903   21.6918 C   0  0  0  0  0  0  0  0  0  0  0  0
    6.3251   -5.6780   26.9371 H   0  0  0  0  0  0  0  0  0  0  0  0
    5.7202   -4.2811   25.9836 H   0  0  0  0  0  0  0  0  0  0  0  0
    6.1560   -5.8136   25.1540 H   0  0  0  0  0  0  0  0  0  0  0  0
    7.2191   -3.2289   24.3571 H   0  0  0  0  0  0  0  0  0  0  0  0
    9.7828   -3.6205   24.2196 H   0  0  0  0  0  0  0  0  0  0  0  0
   11.1302   -1.7245   22.8723 H   0  0  0  0  0  0  0  0  0  0  0  0
   10.2672    0.2134   25.1175 H   0  0  0  0  0  0  0  0  0  0  0  0
   12.0551    0.9870   25.1256 H   0  0  0  0  0  0  0  0  0  0  0  0
   13.8684   -0.6490   24.2249 H   0  0  0  0  0  0  0  0  0  0  0  0
   13.4510    0.5437   22.9482 H   0  0  0  0  0  0  0  0  0  0  0  0
   13.5601   -1.6261   22.1953 H   0  0  0  0  0  0  0  0  0  0  0  0
   11.9413   -2.6100   21.7469 H   0  0  0  0  0  0  0  0  0  0  0  0
   10.9090   -1.6149   22.9483 H   0  0  0  0  0  0  0  0  0  0  0  0
   10.2597   -1.3282   21.6100 H   0  0  0  0  0  0  0  0  0  0  0  0
    7.7171   -1.4557   21.3535 H   0  0  0  0  0  0  0  0  0  0  0  0
    8.4553   -0.3923   18.4794 H   0  0  0  0  0  0  0  0  0  0  0  0
    5.3124    1.3874   17.2104 H   0  0  0  0  0  0  0  0  0  0  0  0
    4.4406    1.3703   19.1562 H   0  0  0  0  0  0  0  0  0  0  0  0
    4.7080   -0.3069   21.9006 H   0  0  0  0  0  0  0  0  0  0  0  0
    6.1153    0.6728   22.4356 H   0  0  0  0  0  0  0  0  0  0  0  0
    4.6675    1.4822   21.7460 H   0  0  0  0  0  0  0  0  0  0  0  0
 20 21  2  0  0  0  0
 19 20  1  0  0  0  0
 21 22  1  0  0  0  0
 18 19  2  0  0  0  0
 22 23  2  0  0  0  0
 18 23  1  0  0  0  0
 17 18  1  0  0  0  0
 23 24  1  0  0  0  0
 15 16  2  0  0  0  0
 15 17  1  0  0  0  0
 14 15  1  0  0  0  0
  8 14  1  0  0  0  0
  7 14  1  0  0  0  0
 12 13  2  0  0  0  0
 11 12  1  0  0  0  0
  7  8  1  0  0  0  0
  8  9  1  0  0  0  0
 10 11  1  0  0  0  0
  6  7  2  3  0  0  0
  5  6  1  0  0  0  0
  9 10  2  0  0  0  0
  2  5  1  0  0  0  0
  2  3  2  0  0  0  0
  1  2  1  0  0  0  0
  2  4  2  0  0  0  0
  1 25  1  0  0  0  0
  1 26  1  0  0  0  0
  1 27  1  0  0  0  0
  5 28  1  0  0  0  0
  6 29  1  0  0  0  0
  8 30  1  0  0  0  0
  9 31  1  0  0  0  0
 10 32  1  0  0  0  0
 11 33  1  0  0  0  0
 11 34  1  0  0  0  0
 12 35  1  0  0  0  0
 13 36  1  0  0  0  0
 13 37  1  0  0  0  0
 14 38  1  0  0  0  0
 17 39  1  0  0  0  0
 19 40  1  0  0  0  0
 21 41  1  0  0  0  0
 22 42  1  0  0  0  0
 24 43  1  0  0  0  0
 24 44  1  0  0  0  0
 24 45  1  0  0  0  0
M  END
> <Chemgauss4>
-12.562826

$$$$
