
 OpenBabel07202414153D

 72 76  0  0  1  0  0  0  0  0999 V2000
    1.9229   -4.0198    1.3669 C   0  0  0  0  0  0  0  0  0  0  0  0
    1.8029   -3.4198    2.6503 O   0  0  0  0  0  0  0  0  0  0  0  0
    2.7676   -2.5032    2.8528 C   0  0  0  0  0  0  0  0  0  0  0  0
    3.6615   -2.0213    1.9484 N   0  0  0  0  0  0  0  0  0  0  0  0
    4.4091   -1.2173    2.6685 C   0  0  0  0  0  0  0  0  0  0  0  0
    5.4698   -0.4510    2.2890 N   0  0  0  0  0  0  0  0  0  0  0  0
    6.0740    0.1901    3.2314 C   0  0  0  0  0  0  0  0  0  0  0  0
    5.7569    0.1619    4.7008 C   0  0  0  0  0  0  0  0  0  0  0  0
    6.7070    0.8553    5.6318 C   0  0  3  0  0  0  0  0  0  0  0  0
    6.5158    2.3259    5.9219 N   0  0  0  0  0  0  0  0  0  0  0  0
    5.5098    3.2454    5.5014 C   0  0  0  0  0  0  0  0  0  0  0  0
    5.5914    4.4507    5.7607 O   0  0  0  0  0  0  0  0  0  0  0  0
    4.4072    2.8834    4.6159 C   0  0  0  0  0  0  0  0  0  0  0  0
    3.9655    3.7026    3.5932 C   0  0  0  0  0  0  0  0  0  0  0  0
    2.9082    3.1107    2.9794 O   0  0  0  0  0  0  0  0  0  0  0  0
    2.7123    1.9811    3.7059 C   0  0  0  0  0  0  0  0  0  0  0  0
    3.5412    1.8188    4.7156 N   0  0  0  0  0  0  0  0  0  0  0  0
    7.5975    2.9250    6.7135 C   0  0  0  0  0  0  0  0  0  0  0  0
    7.3070    3.8308    7.7404 C   0  0  0  0  0  0  0  0  0  0  0  0
    8.3150    4.5367    8.4124 C   0  0  0  0  0  0  0  0  0  0  0  0
    9.6703    4.3513    8.1113 C   0  0  0  0  0  0  0  0  0  0  0  0
   10.7858    5.1416    8.8251 C   0  0  0  0  0  0  0  0  0  0  0  0
   10.2431    6.1309    9.8843 C   0  0  0  0  0  0  0  0  0  0  0  0
   11.7358    4.1633    9.5471 C   0  0  0  0  0  0  0  0  0  0  0  0
   11.6133    5.9764    7.8215 C   0  0  0  0  0  0  0  0  0  0  0  0
    9.9647    3.3882    7.1295 C   0  0  0  0  0  0  0  0  0  0  0  0
    8.9508    2.6803    6.4496 C   0  0  0  0  0  0  0  0  0  0  0  0
    6.8354    0.0106    6.9494 C   0  0  0  0  0  0  0  0  0  0  0  0
    6.4099    0.3997    8.0345 O   0  0  0  0  0  0  0  0  0  0  0  0
    7.4300   -1.2388    6.8000 N   0  0  0  0  0  0  0  0  0  0  0  0
    7.6671   -2.1345    7.9304 C   0  0  0  0  0  0  0  0  0  0  0  0
    6.4298   -2.5300    8.7579 C   0  0  0  0  0  0  0  0  0  0  0  0
    5.3799   -3.2940    7.9862 C   0  0  0  0  0  0  0  0  0  0  0  0
    4.0822   -2.7777    7.8529 C   0  0  0  0  0  0  0  0  0  0  0  0
    3.1217   -3.4515    7.0930 C   0  0  0  0  0  0  0  0  0  0  0  0
    3.4431   -4.6555    6.4710 C   0  0  0  0  0  0  0  0  0  0  0  0
    4.7105   -5.1934    6.6448 C   0  0  0  0  0  0  0  0  0  0  0  0
    5.0190   -6.3620    6.0672 F   0  0  0  0  0  0  0  0  0  0  0  0
    5.6737   -4.5328    7.4018 C   0  0  0  0  0  0  0  0  0  0  0  0
    4.6827   -0.5977    5.0013 C   0  0  0  0  0  0  0  0  0  0  0  0
    3.9784   -1.2627    4.0018 N   0  0  0  0  0  0  0  0  0  0  0  0
    2.8664   -2.0236    4.0907 N   0  0  0  0  0  0  0  0  0  0  0  0
    1.0888   -4.7159    1.2371 H   0  0  0  0  0  0  0  0  0  0  0  0
    2.8543   -4.5932    1.2885 H   0  0  0  0  0  0  0  0  0  0  0  0
    1.8629   -3.2732    0.5670 H   0  0  0  0  0  0  0  0  0  0  0  0
    6.9240    0.8389    2.9507 H   0  0  0  0  0  0  0  0  0  0  0  0
    7.6869    0.7751    5.1459 H   0  0  0  0  0  0  0  0  0  0  0  0
    4.2749    4.6647    3.2099 H   0  0  0  0  0  0  0  0  0  0  0  0
    1.9143    1.3265    3.3810 H   0  0  0  0  0  0  0  0  0  0  0  0
    6.2769    4.0185    8.0385 H   0  0  0  0  0  0  0  0  0  0  0  0
    7.9889    5.2453    9.1687 H   0  0  0  0  0  0  0  0  0  0  0  0
    9.6782    5.6113   10.6671 H   0  0  0  0  0  0  0  0  0  0  0  0
    9.5842    6.8812    9.4297 H   0  0  0  0  0  0  0  0  0  0  0  0
   11.0547    6.6759   10.3798 H   0  0  0  0  0  0  0  0  0  0  0  0
   11.1951    3.5551   10.2809 H   0  0  0  0  0  0  0  0  0  0  0  0
   12.5288    4.7035   10.0784 H   0  0  0  0  0  0  0  0  0  0  0  0
   12.2293    3.4783    8.8488 H   0  0  0  0  0  0  0  0  0  0  0  0
   10.9925    6.7224    7.3122 H   0  0  0  0  0  0  0  0  0  0  0  0
   12.0881    5.3568    7.0538 H   0  0  0  0  0  0  0  0  0  0  0  0
   12.4174    6.5187    8.3371 H   0  0  0  0  0  0  0  0  0  0  0  0
   10.9993    3.1873    6.8567 H   0  0  0  0  0  0  0  0  0  0  0  0
    9.2709    2.0030    5.6662 H   0  0  0  0  0  0  0  0  0  0  0  0
    7.9535   -1.4366    5.9566 H   0  0  0  0  0  0  0  0  0  0  0  0
    8.4006   -1.6462    8.5816 H   0  0  0  0  0  0  0  0  0  0  0  0
    8.1469   -3.0314    7.5192 H   0  0  0  0  0  0  0  0  0  0  0  0
    5.9807   -1.6428    9.2149 H   0  0  0  0  0  0  0  0  0  0  0  0
    6.7506   -3.1577    9.5996 H   0  0  0  0  0  0  0  0  0  0  0  0
    3.8142   -1.8314    8.3216 H   0  0  0  0  0  0  0  0  0  0  0  0
    2.1308   -3.0225    6.9600 H   0  0  0  0  0  0  0  0  0  0  0  0
    2.7150   -5.1690    5.8513 H   0  0  0  0  0  0  0  0  0  0  0  0
    6.6472   -4.9965    7.5238 H   0  0  0  0  0  0  0  0  0  0  0  0
    4.2798   -0.7019    6.0003 H   0  0  0  0  0  0  0  0  0  0  0  0
  1  2  1  0  0  0  0
  1 43  1  0  0  0  0
  1 44  1  0  0  0  0
  1 45  1  0  0  0  0
  2  3  1  0  0  0  0
  3  4  1  0  0  0  0
  3 42  2  0  0  0  0
  4  5  2  0  0  0  0
  5  6  1  0  0  0  0
  5 41  1  0  0  0  0
  6  7  2  0  0  0  0
  7  8  1  0  0  0  0
  7 46  1  0  0  0  0
  8  9  1  0  0  0  0
  8 40  2  0  0  0  0
  9 10  1  0  0  0  0
  9 28  1  0  0  0  0
  9 47  1  0  0  0  0
 10 11  1  0  0  0  0
 10 18  1  0  0  0  0
 11 12  2  0  0  0  0
 11 13  1  0  0  0  0
 13 14  2  0  0  0  0
 13 17  1  0  0  0  0
 14 15  1  0  0  0  0
 14 48  1  0  0  0  0
 15 16  1  0  0  0  0
 16 17  2  0  0  0  0
 16 49  1  0  0  0  0
 18 19  1  0  0  0  0
 18 27  2  0  0  0  0
 19 20  2  0  0  0  0
 19 50  1  0  0  0  0
 20 21  1  0  0  0  0
 20 51  1  0  0  0  0
 21 22  1  0  0  0  0
 21 26  2  0  0  0  0
 22 23  1  0  0  0  0
 22 24  1  0  0  0  0
 22 25  1  0  0  0  0
 23 52  1  0  0  0  0
 23 53  1  0  0  0  0
 23 54  1  0  0  0  0
 24 55  1  0  0  0  0
 24 56  1  0  0  0  0
 24 57  1  0  0  0  0
 25 58  1  0  0  0  0
 25 59  1  0  0  0  0
 25 60  1  0  0  0  0
 26 27  1  0  0  0  0
 26 61  1  0  0  0  0
 27 62  1  0  0  0  0
 28 29  2  0  0  0  0
 28 30  1  0  0  0  0
 30 31  1  0  0  0  0
 30 63  1  0  0  0  0
 31 32  1  0  0  0  0
 31 64  1  0  0  0  0
 31 65  1  0  0  0  0
 32 33  1  0  0  0  0
 32 66  1  0  0  0  0
 32 67  1  0  0  0  0
 33 34  1  0  0  0  0
 33 39  2  0  0  0  0
 34 35  2  0  0  0  0
 34 68  1  0  0  0  0
 35 36  1  0  0  0  0
 35 69  1  0  0  0  0
 36 37  2  0  0  0  0
 36 70  1  0  0  0  0
 37 38  1  0  0  0  0
 37 39  1  0  0  0  0
 39 71  1  0  0  0  0
 40 41  1  0  0  0  0
 40 72  1  0  0  0  0
 41 42  1  0  0  0  0
M  END
$$$$
