MODEL 1
REMARK VINA RESULT:    -5.056      0.000      0.000
REMARK INTER + INTRA:          -7.920
REMARK INTER:                  -7.273
REMARK INTRA:                  -0.647
REMARK UNBOUND:                -0.647
REMARK  8 active torsions:
REMARK  status: ('A' for Active; 'I' for Inactive)
REMARK    1  A    between atoms: N_1  and  C_7 
REMARK    2  A    between atoms: N_1  and  O_8 
REMARK    3  A    between atoms: C_2  and  N_6 
REMARK    4  A    between atoms: C_3  and  N_12 
REMARK    5  A    between atoms: O_4  and  C_7 
REMARK    6  A    between atoms: N_6  and  N_12 
REMARK    7  A    between atoms: C_10  and  C_16 
REMARK       I    between atoms: C_11  and  N_18 
REMARK    8  A    between atoms: C_11  and  C_16 
ROOT
HETATM    1  N   UNL     1      10.211  -0.062  21.405  1.00  0.00    -0.312 N 
HETATM    2  H   UNL     1      10.926   0.526  21.069  1.00  0.00     0.186 HD
ENDROOT
BRANCH   1   3
HETATM    3  C   UNL     1       8.883   0.239  21.376  1.00  0.00     0.103 C 
HETATM    4  C   UNL     1       8.058  -0.295  20.595  1.00  0.00     0.001 C 
BRANCH   4   5
HETATM    5  C   UNL     1       6.685  -0.260  20.186  1.00  0.00     0.131 C 
BRANCH   5   6
HETATM    6  C   UNL     1       6.634   0.106  18.706  1.00  0.00     0.218 C 
HETATM    7  N   UNL     1       5.884  -0.771  18.016  1.00  0.00    -0.370 N 
HETATM    8  H   UNL     1       5.323  -0.366  17.277  1.00  0.00     0.159 HD
HETATM    9  H   UNL     1       6.233  -1.700  17.874  1.00  0.00     0.159 HD
HETATM   10  O   UNL     1       7.220   1.007  18.186  1.00  0.00    -0.274 OA
ENDBRANCH   5   6
ENDBRANCH   4   5
ENDBRANCH   1   3
BRANCH   1  11
HETATM   11  N   UNL     1      10.493  -1.234  21.848  1.00  0.00    -0.308 N 
ATOM     12  HN  UNL     1       9.932  -2.034  21.553  1.00  0.00     0.186 HD
BRANCH  11  13
HETATM   13  C   UNL     1      11.380  -1.392  22.581  1.00  0.00     0.164 C 
HETATM   14  C   UNL     1      11.530  -0.774  23.752  1.00  0.00     0.178 C 
BRANCH  14  15
HETATM   15  N   UNL     1      12.586   0.005  24.128  1.00  0.00    -0.246 N 
HETATM   16  H   UNL     1      12.477   0.995  24.121  1.00  0.00     0.196 HD
BRANCH  15  17
HETATM   17  O   UNL     1      13.645  -0.423  24.372  1.00  0.00    -0.288 OA
ATOM     18  HO  UNL     1      14.300   0.055  24.867  1.00  0.00     0.244 HD
ENDBRANCH  15  17
ENDBRANCH  14  15
BRANCH  14  19
HETATM   19  O   UNL     1      10.442  -0.928  24.447  1.00  0.00    -0.339 OA
HETATM   20  C   UNL     1      10.185   0.257  25.182  1.00  0.00     0.211 C 
ENDBRANCH  14  19
ENDBRANCH  11  13
ENDBRANCH   1  11
TORSDOF 8
ENDMDL
MODEL 2
REMARK VINA RESULT:    -4.918     23.775     26.380
REMARK INTER + INTRA:          -7.721
REMARK INTER:                  -7.125
REMARK INTRA:                  -0.595
REMARK UNBOUND:                -0.647
REMARK  8 active torsions:
REMARK  status: ('A' for Active; 'I' for Inactive)
REMARK    1  A    between atoms: N_1  and  C_7 
REMARK    2  A    between atoms: N_1  and  O_8 
REMARK    3  A    between atoms: C_2  and  N_6 
REMARK    4  A    between atoms: C_3  and  N_12 
REMARK    5  A    between atoms: O_4  and  C_7 
REMARK    6  A    between atoms: N_6  and  N_12 
REMARK    7  A    between atoms: C_10  and  C_16 
REMARK       I    between atoms: C_11  and  N_18 
REMARK    8  A    between atoms: C_11  and  C_16 
ROOT
HETATM    1  N   UNL     1       8.735  17.325   0.810  1.00  0.00    -0.312 N 
HETATM    2  H   UNL     1       7.757  17.412   0.880  1.00  0.00     0.186 HD
ENDROOT
BRANCH   1   3
HETATM    3  C   UNL     1       9.602  18.371   0.726  1.00  0.00     0.103 C 
HETATM    4  C   UNL     1       9.907  19.111   1.693  1.00  0.00     0.001 C 
BRANCH   4   5
HETATM    5  C   UNL     1      10.662  20.277   2.046  1.00  0.00     0.131 C 
BRANCH   5   6
HETATM    6  C   UNL     1      11.554  19.931   3.233  1.00  0.00     0.218 C 
HETATM    7  N   UNL     1      12.736  19.438   2.823  1.00  0.00    -0.370 N 
HETATM    8  H   UNL     1      13.534  19.723   3.376  1.00  0.00     0.159 HD
HETATM    9  H   UNL     1      12.762  18.524   2.412  1.00  0.00     0.159 HD
HETATM   10  O   UNL     1      11.253  20.016   4.385  1.00  0.00    -0.274 OA
ENDBRANCH   5   6
ENDBRANCH   4   5
ENDBRANCH   1   3
BRANCH   1  11
HETATM   11  N   UNL     1       9.286  16.166   0.869  1.00  0.00    -0.308 N 
ATOM     12  HN  UNL     1      10.008  15.914   0.194  1.00  0.00     0.186 HD
BRANCH  11  13
HETATM   13  C   UNL     1       8.970  15.401   1.685  1.00  0.00     0.164 C 
HETATM   14  C   UNL     1       9.716  15.034   2.726  1.00  0.00     0.178 C 
BRANCH  14  15
HETATM   15  N   UNL     1      10.119  13.765   3.028  1.00  0.00    -0.246 N 
HETATM   16  H   UNL     1      11.081  13.530   2.923  1.00  0.00     0.196 HD
BRANCH  15  17
HETATM   17  O   UNL     1       9.379  12.909   3.319  1.00  0.00    -0.288 OA
ATOM     18  HO  UNL     1       9.119  12.724   4.213  1.00  0.00     0.244 HD
ENDBRANCH  15  17
ENDBRANCH  14  15
BRANCH  14  19
HETATM   19  O   UNL     1      10.112  16.102   3.352  1.00  0.00    -0.339 OA
HETATM   20  C   UNL     1       9.845  15.959   4.738  1.00  0.00     0.211 C 
ENDBRANCH  14  19
ENDBRANCH  11  13
ENDBRANCH   1  11
TORSDOF 8
ENDMDL
MODEL 3
REMARK VINA RESULT:    -4.841     21.698     23.617
REMARK INTER + INTRA:          -7.610
REMARK INTER:                  -6.634
REMARK INTRA:                  -0.976
REMARK UNBOUND:                -0.647
REMARK  8 active torsions:
REMARK  status: ('A' for Active; 'I' for Inactive)
REMARK    1  A    between atoms: N_1  and  C_7 
REMARK    2  A    between atoms: N_1  and  O_8 
REMARK    3  A    between atoms: C_2  and  N_6 
REMARK    4  A    between atoms: C_3  and  N_12 
REMARK    5  A    between atoms: O_4  and  C_7 
REMARK    6  A    between atoms: N_6  and  N_12 
REMARK    7  A    between atoms: C_10  and  C_16 
REMARK       I    between atoms: C_11  and  N_18 
REMARK    8  A    between atoms: C_11  and  C_16 
ROOT
HETATM    1  N   UNL     1       6.312  12.932   1.191  1.00  0.00    -0.312 N 
HETATM    2  H   UNL     1       5.504  13.290   1.626  1.00  0.00     0.186 HD
ENDROOT
BRANCH   1   3
HETATM    3  C   UNL     1       7.470  13.627   1.017  1.00  0.00     0.103 C 
HETATM    4  C   UNL     1       8.116  14.164   1.950  1.00  0.00     0.001 C 
BRANCH   4   5
HETATM    5  C   UNL     1       9.259  14.983   2.224  1.00  0.00     0.131 C 
BRANCH   5   6
HETATM    6  C   UNL     1      10.054  14.337   3.354  1.00  0.00     0.218 C 
HETATM    7  N   UNL     1      11.331  14.756   3.348  1.00  0.00    -0.370 N 
HETATM    8  H   UNL     1      11.740  14.895   4.264  1.00  0.00     0.159 HD
HETATM    9  H   UNL     1      11.939  14.446   2.614  1.00  0.00     0.159 HD
HETATM   10  O   UNL     1       9.643  13.520   4.121  1.00  0.00    -0.274 OA
ENDBRANCH   5   6
ENDBRANCH   4   5
ENDBRANCH   1   3
BRANCH   1  11
HETATM   11  N   UNL     1       6.350  11.707   0.808  1.00  0.00    -0.308 N 
ATOM     12  HN  UNL     1       6.085  11.467  -0.147  1.00  0.00     0.186 HD
BRANCH  11  13
HETATM   13  C   UNL     1       6.684  10.868   1.541  1.00  0.00     0.164 C 
HETATM   14  C   UNL     1       6.349  10.792   2.828  1.00  0.00     0.178 C 
BRANCH  14  15
HETATM   15  N   UNL     1       7.206  10.761   3.889  1.00  0.00    -0.246 N 
HETATM   16  H   UNL     1       6.837  10.589   4.799  1.00  0.00     0.196 HD
BRANCH  15  17
HETATM   17  O   UNL     1       8.343  11.017   3.804  1.00  0.00    -0.288 OA
ATOM     18  HO  UNL     1       8.668  11.880   3.576  1.00  0.00     0.244 HD
ENDBRANCH  15  17
ENDBRANCH  14  15
BRANCH  14  19
HETATM   19  O   UNL     1       5.055  10.878   2.927  1.00  0.00    -0.339 OA
HETATM   20  C   UNL     1       4.720  11.479   4.167  1.00  0.00     0.211 C 
ENDBRANCH  14  19
ENDBRANCH  11  13
ENDBRANCH   1  11
TORSDOF 8
ENDMDL
MODEL 4
REMARK VINA RESULT:    -4.792     23.352     25.330
REMARK INTER + INTRA:          -7.540
REMARK INTER:                  -6.925
REMARK INTRA:                  -0.615
REMARK UNBOUND:                -0.647
REMARK  8 active torsions:
REMARK  status: ('A' for Active; 'I' for Inactive)
REMARK    1  A    between atoms: N_1  and  C_7 
REMARK    2  A    between atoms: N_1  and  O_8 
REMARK    3  A    between atoms: C_2  and  N_6 
REMARK    4  A    between atoms: C_3  and  N_12 
REMARK    5  A    between atoms: O_4  and  C_7 
REMARK    6  A    between atoms: N_6  and  N_12 
REMARK    7  A    between atoms: C_10  and  C_16 
REMARK       I    between atoms: C_11  and  N_18 
REMARK    8  A    between atoms: C_11  and  C_16 
ROOT
HETATM    1  N   UNL     1      10.425  14.759   2.295  1.00  0.00    -0.312 N 
HETATM    2  H   UNL     1      11.223  14.793   1.721  1.00  0.00     0.186 HD
ENDROOT
BRANCH   1   3
HETATM    3  C   UNL     1       9.188  15.198   1.930  1.00  0.00     0.103 C 
HETATM    4  C   UNL     1       8.925  16.388   1.629  1.00  0.00     0.001 C 
BRANCH   4   5
HETATM    5  C   UNL     1       7.849  17.264   1.272  1.00  0.00     0.131 C 
BRANCH   5   6
HETATM    6  C   UNL     1       8.388  18.321   0.313  1.00  0.00     0.218 C 
HETATM    7  N   UNL     1       9.733  18.338   0.319  1.00  0.00    -0.370 N 
HETATM    8  H   UNL     1      10.163  18.503  -0.583  1.00  0.00     0.159 HD
HETATM    9  H   UNL     1      10.208  18.691   1.128  1.00  0.00     0.159 HD
HETATM   10  O   UNL     1       7.733  19.087  -0.327  1.00  0.00    -0.274 OA
ENDBRANCH   5   6
ENDBRANCH   4   5
ENDBRANCH   1   3
BRANCH   1  11
HETATM   11  N   UNL     1      10.485  14.206   3.454  1.00  0.00    -0.308 N 
ATOM     12  HN  UNL     1      10.018  13.314   3.613  1.00  0.00     0.186 HD
BRANCH  11  13
HETATM   13  C   UNL     1      11.067  14.715   4.322  1.00  0.00     0.164 C 
HETATM   14  C   UNL     1      10.657  15.786   5.000  1.00  0.00     0.178 C 
BRANCH  14  15
HETATM   15  N   UNL     1      11.318  16.974   5.116  1.00  0.00    -0.246 N 
HETATM   16  H   UNL     1      10.900  17.705   5.650  1.00  0.00     0.196 HD
BRANCH  15  17
HETATM   17  O   UNL     1      12.308  17.216   4.546  1.00  0.00    -0.288 OA
ATOM     18  HO  UNL     1      12.772  16.582   4.013  1.00  0.00     0.244 HD
ENDBRANCH  15  17
ENDBRANCH  14  15
BRANCH  14  19
HETATM   19  O   UNL     1       9.453  15.565   5.439  1.00  0.00    -0.339 OA
HETATM   20  C   UNL     1       8.705  16.769   5.381  1.00  0.00     0.211 C 
ENDBRANCH  14  19
ENDBRANCH  11  13
ENDBRANCH   1  11
TORSDOF 8
ENDMDL
MODEL 5
REMARK VINA RESULT:    -4.735     23.670     25.682
REMARK INTER + INTRA:          -7.459
REMARK INTER:                  -6.852
REMARK INTRA:                  -0.607
REMARK UNBOUND:                -0.647
REMARK  8 active torsions:
REMARK  status: ('A' for Active; 'I' for Inactive)
REMARK    1  A    between atoms: N_1  and  C_7 
REMARK    2  A    between atoms: N_1  and  O_8 
REMARK    3  A    between atoms: C_2  and  N_6 
REMARK    4  A    between atoms: C_3  and  N_12 
REMARK    5  A    between atoms: O_4  and  C_7 
REMARK    6  A    between atoms: N_6  and  N_12 
REMARK    7  A    between atoms: C_10  and  C_16 
REMARK       I    between atoms: C_11  and  N_18 
REMARK    8  A    between atoms: C_11  and  C_16 
ROOT
HETATM    1  N   UNL     1       9.631  18.426   2.055  1.00  0.00    -0.312 N 
HETATM    2  H   UNL     1       9.939  18.601   1.137  1.00  0.00     0.186 HD
ENDROOT
BRANCH   1   3
HETATM    3  C   UNL     1       8.957  17.310   2.447  1.00  0.00     0.103 C 
HETATM    4  C   UNL     1       9.233  16.149   2.057  1.00  0.00     0.001 C 
BRANCH   4   5
HETATM    5  C   UNL     1       8.802  14.784   2.139  1.00  0.00     0.131 C 
BRANCH   5   6
HETATM    6  C   UNL     1       9.724  14.047   3.105  1.00  0.00     0.218 C 
HETATM    7  N   UNL     1      10.970  14.549   3.063  1.00  0.00    -0.370 N 
HETATM    8  H   UNL     1      11.446  14.590   3.956  1.00  0.00     0.159 HD
HETATM    9  H   UNL     1      11.531  14.384   2.249  1.00  0.00     0.159 HD
HETATM   10  O   UNL     1       9.427  13.106   3.778  1.00  0.00    -0.274 OA
ENDBRANCH   5   6
ENDBRANCH   4   5
ENDBRANCH   1   3
BRANCH   1  11
HETATM   11  N   UNL     1       9.921  19.245   3.001  1.00  0.00    -0.308 N 
ATOM     12  HN  UNL     1       9.676  20.231   2.910  1.00  0.00     0.186 HD
BRANCH  11  13
HETATM   13  C   UNL     1      10.461  18.874   3.961  1.00  0.00     0.164 C 
HETATM   14  C   UNL     1      11.766  18.994   4.205  1.00  0.00     0.178 C 
BRANCH  14  15
HETATM   15  N   UNL     1      12.641  17.976   4.454  1.00  0.00    -0.246 N 
HETATM   16  H   UNL     1      13.595  18.199   4.639  1.00  0.00     0.196 HD
BRANCH  15  17
HETATM   17  O   UNL     1      12.354  16.847   4.372  1.00  0.00    -0.288 OA
ATOM     18  HO  UNL     1      12.537  16.316   3.606  1.00  0.00     0.244 HD
ENDBRANCH  15  17
ENDBRANCH  14  15
BRANCH  14  19
HETATM   19  O   UNL     1      12.107  20.238   4.045  1.00  0.00    -0.339 OA
HETATM   20  C   UNL     1      12.375  20.816   5.312  1.00  0.00     0.211 C 
ENDBRANCH  14  19
ENDBRANCH  11  13
ENDBRANCH   1  11
TORSDOF 8
ENDMDL
MODEL 6
REMARK VINA RESULT:    -4.713      1.206      1.225
REMARK INTER + INTRA:          -7.427
REMARK INTER:                  -6.823
REMARK INTRA:                  -0.604
REMARK UNBOUND:                -0.647
REMARK  8 active torsions:
REMARK  status: ('A' for Active; 'I' for Inactive)
REMARK    1  A    between atoms: N_1  and  C_7 
REMARK    2  A    between atoms: N_1  and  O_8 
REMARK    3  A    between atoms: C_2  and  N_6 
REMARK    4  A    between atoms: C_3  and  N_12 
REMARK    5  A    between atoms: O_4  and  C_7 
REMARK    6  A    between atoms: N_6  and  N_12 
REMARK    7  A    between atoms: C_10  and  C_16 
REMARK       I    between atoms: C_11  and  N_18 
REMARK    8  A    between atoms: C_11  and  C_16 
ROOT
HETATM    1  N   UNL     1       9.339  -0.253  21.742  1.00  0.00    -0.312 N 
HETATM    2  H   UNL     1       9.275   0.369  22.502  1.00  0.00     0.186 HD
ENDROOT
BRANCH   1   3
HETATM    3  C   UNL     1       8.652  -0.124  20.573  1.00  0.00     0.103 C 
HETATM    4  C   UNL     1       7.542   0.454  20.470  1.00  0.00     0.001 C 
BRANCH   4   5
HETATM    5  C   UNL     1       6.496   0.759  19.540  1.00  0.00     0.131 C 
BRANCH   5   6
HETATM    6  C   UNL     1       5.861  -0.552  19.084  1.00  0.00     0.218 C 
HETATM    7  N   UNL     1       5.714  -0.578  17.748  1.00  0.00    -0.370 N 
HETATM    8  H   UNL     1       5.881  -1.479  17.317  1.00  0.00     0.159 HD
HETATM    9  H   UNL     1       5.025   0.015  17.326  1.00  0.00     0.159 HD
HETATM   10  O   UNL     1       5.480  -1.431  19.796  1.00  0.00    -0.274 OA
ENDBRANCH   5   6
ENDBRANCH   4   5
ENDBRANCH   1   3
BRANCH   1  11
HETATM   11  N   UNL     1      10.169  -1.234  21.779  1.00  0.00    -0.308 N 
ATOM     12  HN  UNL     1      10.032  -2.035  21.162  1.00  0.00     0.186 HD
BRANCH  11  13
HETATM   13  C   UNL     1      11.073  -1.217  22.508  1.00  0.00     0.164 C 
HETATM   14  C   UNL     1      11.026  -0.834  23.784  1.00  0.00     0.178 C 
BRANCH  14  15
HETATM   15  N   UNL     1      11.749   0.171  24.356  1.00  0.00    -0.246 N 
HETATM   16  H   UNL     1      11.263   0.945  24.754  1.00  0.00     0.196 HD
BRANCH  15  17
HETATM   17  O   UNL     1      12.916   0.221  24.326  1.00  0.00    -0.288 OA
ATOM     18  HO  UNL     1      13.434  -0.117  23.605  1.00  0.00     0.244 HD
ENDBRANCH  15  17
ENDBRANCH  14  15
BRANCH  14  19
HETATM   19  O   UNL     1      10.079  -1.495  24.381  1.00  0.00    -0.339 OA
HETATM   20  C   UNL     1       9.478  -0.666  25.363  1.00  0.00     0.211 C 
ENDBRANCH  14  19
ENDBRANCH  11  13
ENDBRANCH   1  11
TORSDOF 8
ENDMDL
MODEL 7
REMARK VINA RESULT:    -4.623      4.448      6.309
REMARK INTER + INTRA:          -7.297
REMARK INTER:                  -6.918
REMARK INTRA:                  -0.378
REMARK UNBOUND:                -0.647
REMARK  8 active torsions:
REMARK  status: ('A' for Active; 'I' for Inactive)
REMARK    1  A    between atoms: N_1  and  C_7 
REMARK    2  A    between atoms: N_1  and  O_8 
REMARK    3  A    between atoms: C_2  and  N_6 
REMARK    4  A    between atoms: C_3  and  N_12 
REMARK    5  A    between atoms: O_4  and  C_7 
REMARK    6  A    between atoms: N_6  and  N_12 
REMARK    7  A    between atoms: C_10  and  C_16 
REMARK       I    between atoms: C_11  and  N_18 
REMARK    8  A    between atoms: C_11  and  C_16 
ROOT
HETATM    1  N   UNL     1       6.294  -1.067  22.580  1.00  0.00    -0.312 N 
HETATM    2  H   UNL     1       6.170  -0.208  23.045  1.00  0.00     0.186 HD
ENDROOT
BRANCH   1   3
HETATM    3  C   UNL     1       6.350  -2.280  23.196  1.00  0.00     0.103 C 
HETATM    4  C   UNL     1       5.984  -3.357  22.664  1.00  0.00     0.001 C 
BRANCH   4   5
HETATM    5  C   UNL     1       5.810  -4.756  22.920  1.00  0.00     0.131 C 
BRANCH   5   6
HETATM    6  C   UNL     1       6.366  -5.534  21.731  1.00  0.00     0.218 C 
HETATM    7  N   UNL     1       7.570  -6.060  22.019  1.00  0.00    -0.370 N 
HETATM    8  H   UNL     1       7.738  -6.980  21.630  1.00  0.00     0.159 HD
HETATM    9  H   UNL     1       8.357  -5.446  22.109  1.00  0.00     0.159 HD
HETATM   10  O   UNL     1       5.856  -5.632  20.656  1.00  0.00    -0.274 OA
ENDBRANCH   5   6
ENDBRANCH   4   5
ENDBRANCH   1   3
BRANCH   1  11
HETATM   11  N   UNL     1       6.340  -1.106  21.296  1.00  0.00    -0.308 N 
ATOM     12  HN  UNL     1       6.015  -1.938  20.804  1.00  0.00     0.186 HD
BRANCH  11  13
HETATM   13  C   UNL     1       6.749  -0.202  20.691  1.00  0.00     0.164 C 
HETATM   14  C   UNL     1       6.402   0.108  19.443  1.00  0.00     0.178 C 
BRANCH  14  15
HETATM   15  N   UNL     1       7.240   0.217  18.371  1.00  0.00    -0.246 N 
HETATM   16  H   UNL     1       6.874   0.559  17.509  1.00  0.00     0.196 HD
BRANCH  15  17
HETATM   17  O   UNL     1       8.347  -0.155  18.382  1.00  0.00    -0.288 OA
ATOM     18  HO  UNL     1       8.894  -0.189  17.606  1.00  0.00     0.244 HD
ENDBRANCH  15  17
ENDBRANCH  14  15
BRANCH  14  19
HETATM   19  O   UNL     1       5.105   0.171  19.374  1.00  0.00    -0.339 OA
HETATM   20  C   UNL     1       4.705   1.530  19.301  1.00  0.00     0.211 C 
ENDBRANCH  14  19
ENDBRANCH  11  13
ENDBRANCH   1  11
TORSDOF 8
ENDMDL
MODEL 8
REMARK VINA RESULT:    -4.575      2.040      6.187
REMARK INTER + INTRA:          -7.228
REMARK INTER:                  -6.493
REMARK INTRA:                  -0.735
REMARK UNBOUND:                -0.647
REMARK  8 active torsions:
REMARK  status: ('A' for Active; 'I' for Inactive)
REMARK    1  A    between atoms: N_1  and  C_7 
REMARK    2  A    between atoms: N_1  and  O_8 
REMARK    3  A    between atoms: C_2  and  N_6 
REMARK    4  A    between atoms: C_3  and  N_12 
REMARK    5  A    between atoms: O_4  and  C_7 
REMARK    6  A    between atoms: N_6  and  N_12 
REMARK    7  A    between atoms: C_10  and  C_16 
REMARK       I    between atoms: C_11  and  N_18 
REMARK    8  A    between atoms: C_11  and  C_16 
ROOT
HETATM    1  N   UNL     1       9.156  -0.944  21.336  1.00  0.00    -0.312 N 
HETATM    2  H   UNL     1       8.607  -1.756  21.426  1.00  0.00     0.186 HD
ENDROOT
BRANCH   1   3
HETATM    3  C   UNL     1      10.144  -0.576  22.198  1.00  0.00     0.103 C 
HETATM    4  C   UNL     1      10.298   0.590  22.636  1.00  0.00     0.001 C 
BRANCH   4   5
HETATM    5  C   UNL     1      11.158   1.402  23.445  1.00  0.00     0.131 C 
BRANCH   5   6
HETATM    6  C   UNL     1      11.627   0.568  24.634  1.00  0.00     0.218 C 
HETATM    7  N   UNL     1      10.640   0.413  25.534  1.00  0.00    -0.370 N 
HETATM    8  H   UNL     1      10.607  -0.496  25.979  1.00  0.00     0.159 HD
HETATM    9  H   UNL     1      10.353   1.204  26.078  1.00  0.00     0.159 HD
HETATM   10  O   UNL     1      12.731   0.147  24.803  1.00  0.00    -0.274 OA
ENDBRANCH   5   6
ENDBRANCH   4   5
ENDBRANCH   1   3
BRANCH   1  11
HETATM   11  N   UNL     1       9.017  -0.180  20.312  1.00  0.00    -0.308 N 
ATOM     12  HN  UNL     1       9.824   0.320  19.941  1.00  0.00     0.186 HD
BRANCH  11  13
HETATM   13  C   UNL     1       7.979  -0.053  19.805  1.00  0.00     0.164 C 
HETATM   14  C   UNL     1       6.870   0.363  20.416  1.00  0.00     0.178 C 
BRANCH  14  15
HETATM   15  N   UNL     1       5.691  -0.319  20.511  1.00  0.00    -0.246 N 
HETATM   16  H   UNL     1       5.560  -0.945  21.274  1.00  0.00     0.196 HD
BRANCH  15  17
HETATM   17  O   UNL     1       4.859  -0.278  19.692  1.00  0.00    -0.288 OA
ATOM     18  HO  UNL     1       4.257  -0.993  19.524  1.00  0.00     0.244 HD
ENDBRANCH  15  17
ENDBRANCH  14  15
BRANCH  14  19
HETATM   19  O   UNL     1       7.125   1.483  21.026  1.00  0.00    -0.339 OA
HETATM   20  C   UNL     1       6.559   1.448  22.325  1.00  0.00     0.211 C 
ENDBRANCH  14  19
ENDBRANCH  11  13
ENDBRANCH   1  11
TORSDOF 8
ENDMDL
MODEL 9
REMARK VINA RESULT:    -4.425     22.877     25.540
REMARK INTER + INTRA:          -7.013
REMARK INTER:                  -6.301
REMARK INTRA:                  -0.711
REMARK UNBOUND:                -0.647
REMARK  8 active torsions:
REMARK  status: ('A' for Active; 'I' for Inactive)
REMARK    1  A    between atoms: N_1  and  C_7 
REMARK    2  A    between atoms: N_1  and  O_8 
REMARK    3  A    between atoms: C_2  and  N_6 
REMARK    4  A    between atoms: C_3  and  N_12 
REMARK    5  A    between atoms: O_4  and  C_7 
REMARK    6  A    between atoms: N_6  and  N_12 
REMARK    7  A    between atoms: C_10  and  C_16 
REMARK       I    between atoms: C_11  and  N_18 
REMARK    8  A    between atoms: C_11  and  C_16 
ROOT
HETATM    1  N   UNL     1       8.699  14.297   1.137  1.00  0.00    -0.312 N 
HETATM    2  H   UNL     1       9.148  13.712   0.485  1.00  0.00     0.186 HD
ENDROOT
BRANCH   1   3
HETATM    3  C   UNL     1       9.342  15.125   2.007  1.00  0.00     0.103 C 
HETATM    4  C   UNL     1       8.958  16.287   2.285  1.00  0.00     0.001 C 
BRANCH   4   5
HETATM    5  C   UNL     1       9.312  17.458   3.031  1.00  0.00     0.131 C 
BRANCH   5   6
HETATM    6  C   UNL     1       9.622  18.580   2.044  1.00  0.00     0.218 C 
HETATM    7  N   UNL     1       9.384  19.785   2.591  1.00  0.00    -0.370 N 
HETATM    8  H   UNL     1      10.042  20.510   2.333  1.00  0.00     0.159 HD
HETATM    9  H   UNL     1       8.435  20.062   2.757  1.00  0.00     0.159 HD
HETATM   10  O   UNL     1       9.972  18.441   0.911  1.00  0.00    -0.274 OA
ENDBRANCH   5   6
ENDBRANCH   4   5
ENDBRANCH   1   3
BRANCH   1  11
HETATM   11  N   UNL     1       7.417  14.373   1.160  1.00  0.00    -0.308 N 
ATOM     12  HN  UNL     1       6.967  15.271   1.340  1.00  0.00     0.186 HD
BRANCH  11  13
HETATM   13  C   UNL     1       6.764  13.429   0.979  1.00  0.00     0.164 C 
HETATM   14  C   UNL     1       6.885  12.274   1.631  1.00  0.00     0.178 C 
BRANCH  14  15
HETATM   15  N   UNL     1       7.137  11.052   1.078  1.00  0.00    -0.246 N 
HETATM   16  H   UNL     1       7.473  10.320   1.665  1.00  0.00     0.196 HD
BRANCH  15  17
HETATM   17  O   UNL     1       7.068  10.840  -0.069  1.00  0.00    -0.288 OA
ATOM     18  HO  UNL     1       6.733  10.027  -0.430  1.00  0.00     0.244 HD
ENDBRANCH  15  17
ENDBRANCH  14  15
BRANCH  14  19
HETATM   19  O   UNL     1       6.847  12.511   2.909  1.00  0.00    -0.339 OA
HETATM   20  C   UNL     1       7.710  11.607   3.579  1.00  0.00     0.211 C 
ENDBRANCH  14  19
ENDBRANCH  11  13
ENDBRANCH   1  11
TORSDOF 8
ENDMDL
