stable:False satoms:7 tatoms:24 sratio:0.2916666666666667
  -OEChem-07092417503D

 24 25  0     1  0  0  0  0  0999 V2000
    6.5885   -4.8586   26.4804 C   0  0  0  0  0  0  0  0  0  0  0  0
    8.2141   -4.2986   26.1037 S   0  0  0  0  0  0  0  0  0  0  0  0
    9.0591   -5.4604   26.0082 O   0  0  0  0  0  0  0  0  0  0  0  0
    8.6138   -3.4437   27.1642 O   0  0  0  0  0  0  0  0  0  0  0  0
    8.0869   -3.5691   24.6669 N   0  0  0  0  0  0  0  0  0  0  0  0
    8.9626   -2.9087   24.1415 C   0  0  0  0  0  0  0  0  0  0  0  0
    9.4125   -1.9741   23.4900 C   0  0  0  0  0  0  0  0  0  0  0  0
   10.3210   -1.1326   23.2397 C   0  0  1  0  0  0  0  0  0  0  0  0
   11.0048    0.0011   24.2854 C   0  0  0  0  0  0  0  0  0  0  0  0
   12.0776    0.3208   24.2652 C   0  0  0  0  0  0  0  0  0  0  0  0
   13.1427   -0.0512   23.5970 C   0  0  0  0  0  0  0  0  0  0  0  0
   12.7166   -1.3072   22.6851 C   0  0  0  0  0  0  0  0  0  0  0  0
   11.8657   -1.7366   22.5534 C   0  0  0  0  0  0  0  0  0  0  0  0
    9.7440   -0.5650   22.3234 C   0  0  0  0  0  0  0  0  0  0  0  0
    9.0619    0.0303   21.3648 C   0  0  0  0  0  0  0  0  0  0  0  0
    9.5587    0.9646   20.9316 O   0  0  0  0  0  0  0  0  0  0  0  0
    7.9186   -0.5822   21.0815 N   0  0  0  0  0  0  0  0  0  0  0  0
    7.1846   -0.1374   20.1657 C   0  0  0  0  0  0  0  0  0  0  0  0
    7.2249   -0.0508   18.8431 C   0  0  0  0  0  0  0  0  0  0  0  0
    6.7765    0.2596   17.7718 N   0  0  0  0  0  0  0  0  0  0  0  0
    5.6251    0.8978   18.2155 C   0  0  0  0  0  0  0  0  0  0  0  0
    5.2283    1.0229   19.4287 C   0  0  0  0  0  0  0  0  0  0  0  0
    5.8330    0.5692   20.5238 C   0  0  0  0  0  0  0  0  0  0  0  0
    5.3625    0.7197   21.9664 C   0  0  0  0  0  0  0  0  0  0  0  0
 20 21  2  0  0  0  0
 19 20  1  0  0  0  0
 21 22  1  0  0  0  0
 18 19  2  0  0  0  0
 22 23  2  0  0  0  0
 18 23  1  0  0  0  0
 17 18  1  0  0  0  0
 23 24  1  0  0  0  0
 15 16  2  0  0  0  0
 15 17  1  0  0  0  0
 14 15  1  0  0  0  0
  8 14  1  0  0  0  0
 12 13  1  0  0  0  0
  8 13  1  0  0  0  0
 11 12  2  0  0  0  0
  7  8  1  0  0  0  0
  8  9  1  0  0  0  0
  6  7  2  3  0  0  0
 10 11  1  0  0  0  0
  5  6  1  0  0  0  0
  9 10  2  0  0  0  0
  2  5  1  0  0  0  0
  2  3  2  0  0  0  0
  1  2  1  0  0  0  0
  2  4  2  0  0  0  0
M  END
> <Shapegauss>
-285.728058

$$$$
