stable:False satoms:7 tatoms:24 sratio:0.2916666666666667
  -OEChem-08062417063D

 45 46  0     1  0  0  0  0  0999 V2000
    6.1458   -4.9486   26.3585 C   0  0  0  0  0  0  0  0  0  0  0  0
    7.7972   -4.3886   26.1189 S   0  0  0  0  0  0  0  0  0  0  0  0
    8.6437   -5.5521   26.0663 O   0  0  0  0  0  0  0  0  0  0  0  0
    8.1166   -3.5558   27.2233 O   0  0  0  0  0  0  0  0  0  0  0  0
    7.7832   -3.6314   24.6909 N   0  0  0  0  0  0  0  0  0  0  0  0
    8.6986   -2.9650   24.2473 C   0  0  0  0  0  0  0  0  0  0  0  0
    9.2001   -2.0201   23.6505 C   0  0  0  0  0  0  0  0  0  0  0  0
   10.1276   -1.1780   23.4871 C   0  0  1  0  0  0  0  0  0  0  0  0
   10.7322   -0.0674   24.6040 C   0  0  0  0  0  0  0  0  0  0  0  0
   11.8043    0.2479   24.6725 C   0  0  0  0  0  0  0  0  0  0  0  0
   12.9166   -0.1160   24.0812 C   0  0  0  0  0  0  0  0  0  0  0  0
   12.5583   -1.3526   23.1152 C   0  0  0  0  0  0  0  0  0  0  0  0
   11.7188   -1.7757   22.9101 C   0  0  0  0  0  0  0  0  0  0  0  0
    9.6246   -0.5906   22.5402 C   0  0  0  0  0  0  0  0  0  0  0  0
    9.0200    0.0258   21.5437 C   0  0  0  0  0  0  0  0  0  0  0  0
    9.5514    0.9660   21.1681 O   0  0  0  0  0  0  0  0  0  0  0  0
    7.9002   -0.5762   21.1615 N   0  0  0  0  0  0  0  0  0  0  0  0
    7.2402   -0.1108   20.2007 C   0  0  0  0  0  0  0  0  0  0  0  0
    7.3824    0.0008   18.8870 C   0  0  0  0  0  0  0  0  0  0  0  0
    7.0188    0.3334   17.7906 N   0  0  0  0  0  0  0  0  0  0  0  0
    5.8385    0.9681   18.1566 C   0  0  0  0  0  0  0  0  0  0  0  0
    5.3498    1.0719   19.3379 C   0  0  0  0  0  0  0  0  0  0  0  0
    5.8671    0.5948   20.4673 C   0  0  0  0  0  0  0  0  0  0  0  0
    5.2873    0.7199   21.8721 C   0  0  0  0  0  0  0  0  0  0  0  0
    6.0738   -5.4793   27.3193 H   0  0  0  0  0  0  0  0  0  0  0  0
    5.4635   -4.0858   26.3644 H   0  0  0  0  0  0  0  0  0  0  0  0
    5.8677   -5.6304   25.5413 H   0  0  0  0  0  0  0  0  0  0  0  0
    6.9959   -3.0157   24.7230 H   0  0  0  0  0  0  0  0  0  0  0  0
    9.5660   -3.5293   24.5566 H   0  0  0  0  0  0  0  0  0  0  0  0
    8.4908   -1.7912   22.8688 H   0  0  0  0  0  0  0  0  0  0  0  0
   10.0351    0.3707   25.3029 H   0  0  0  0  0  0  0  0  0  0  0  0
   11.9583    1.0361   25.3946 H   0  0  0  0  0  0  0  0  0  0  0  0
   13.8906    0.3303   24.2169 H   0  0  0  0  0  0  0  0  0  0  0  0
   13.4094   -1.7828   22.6082 H   0  0  0  0  0  0  0  0  0  0  0  0
   11.6521   -1.7897   21.8122 H   0  0  0  0  0  0  0  0  0  0  0  0
   11.8045   -2.8061   23.2855 H   0  0  0  0  0  0  0  0  0  0  0  0
   10.2153   -1.1908   21.8326 H   0  0  0  0  0  0  0  0  0  0  0  0
   10.1771    0.3261   22.7939 H   0  0  0  0  0  0  0  0  0  0  0  0
    7.5838   -1.3969   21.6371 H   0  0  0  0  0  0  0  0  0  0  0  0
    8.3455   -0.4519   18.7024 H   0  0  0  0  0  0  0  0  0  0  0  0
    5.2703    1.4240   17.3593 H   0  0  0  0  0  0  0  0  0  0  0  0
    4.4150    1.6056   19.4257 H   0  0  0  0  0  0  0  0  0  0  0  0
    4.6443   -0.1474   22.0825 H   0  0  0  0  0  0  0  0  0  0  0  0
    6.1068    0.7550   22.6050 H   0  0  0  0  0  0  0  0  0  0  0  0
    4.6927    1.6427   21.9424 H   0  0  0  0  0  0  0  0  0  0  0  0
 20 21  2  0  0  0  0
 19 20  1  0  0  0  0
 21 22  1  0  0  0  0
 18 19  2  0  0  0  0
 22 23  2  0  0  0  0
 18 23  1  0  0  0  0
 17 18  1  0  0  0  0
 23 24  1  0  0  0  0
 15 16  2  0  0  0  0
 15 17  1  0  0  0  0
 14 15  1  0  0  0  0
  8 14  1  0  0  0  0
 12 13  1  0  0  0  0
  8 13  1  0  0  0  0
 11 12  2  0  0  0  0
  7  8  1  0  0  0  0
  8  9  1  0  0  0  0
  6  7  2  3  0  0  0
 10 11  1  0  0  0  0
  5  6  1  0  0  0  0
  9 10  2  0  0  0  0
  2  5  1  0  0  0  0
  2  3  2  0  0  0  0
  1  2  1  0  0  0  0
  2  4  2  0  0  0  0
  1 25  1  0  0  0  0
  1 26  1  0  0  0  0
  1 27  1  0  0  0  0
  5 28  1  0  0  0  0
  6 29  1  0  0  0  0
  7 30  1  0  0  0  0
  9 31  1  0  0  0  0
 10 32  1  0  0  0  0
 11 33  1  0  0  0  0
 12 34  1  0  0  0  0
 13 35  1  0  0  0  0
 13 36  1  0  0  0  0
 14 37  1  0  0  0  0
 14 38  1  0  0  0  0
 17 39  1  0  0  0  0
 19 40  1  0  0  0  0
 21 41  1  0  0  0  0
 22 42  1  0  0  0  0
 24 43  1  0  0  0  0
 24 44  1  0  0  0  0
 24 45  1  0  0  0  0
M  END
> <Chemgauss4>
-13.240841

$$$$
