stable:False satoms:7 tatoms:24 sratio:0.2916666666666667
  -OEChem-08062417053D

 45 46  0     1  0  0  0  0  0999 V2000
   -6.4242   -4.9206  -26.3208 C   0  0  0  0  0  0  0  0  0  0  0  0
   -8.0756   -4.3607  -26.0811 S   0  0  0  0  0  0  0  0  0  0  0  0
   -8.9221   -5.5241  -26.0285 O   0  0  0  0  0  0  0  0  0  0  0  0
   -8.3950   -3.5278  -27.1855 O   0  0  0  0  0  0  0  0  0  0  0  0
   -8.0616   -3.6034  -24.6531 N   0  0  0  0  0  0  0  0  0  0  0  0
   -8.9771   -2.9370  -24.2095 C   0  0  0  0  0  0  0  0  0  0  0  0
   -9.4785   -1.9922  -23.6127 C   0  0  0  0  0  0  0  0  0  0  0  0
  -10.4060   -1.1501  -23.4493 C   0  0  1  0  0  0  0  0  0  0  0  0
  -11.0106   -0.0395  -24.5662 C   0  0  0  0  0  0  0  0  0  0  0  0
  -12.0827    0.2759  -24.6348 C   0  0  0  0  0  0  0  0  0  0  0  0
  -13.1950   -0.0880  -24.0435 C   0  0  0  0  0  0  0  0  0  0  0  0
  -12.8367   -1.3246  -23.0774 C   0  0  0  0  0  0  0  0  0  0  0  0
  -11.9972   -1.7477  -22.8724 C   0  0  0  0  0  0  0  0  0  0  0  0
   -9.9030   -0.5626  -22.5025 C   0  0  0  0  0  0  0  0  0  0  0  0
   -9.2985    0.0538  -21.5059 C   0  0  0  0  0  0  0  0  0  0  0  0
   -9.8299    0.9940  -21.1303 O   0  0  0  0  0  0  0  0  0  0  0  0
   -8.1786   -0.5482  -21.1237 N   0  0  0  0  0  0  0  0  0  0  0  0
   -7.5186   -0.0828  -20.1629 C   0  0  0  0  0  0  0  0  0  0  0  0
   -7.6609    0.0287  -18.8493 C   0  0  0  0  0  0  0  0  0  0  0  0
   -7.2972    0.3614  -17.7528 N   0  0  0  0  0  0  0  0  0  0  0  0
   -6.1169    0.9961  -18.1189 C   0  0  0  0  0  0  0  0  0  0  0  0
   -5.6282    1.0999  -19.3001 C   0  0  0  0  0  0  0  0  0  0  0  0
   -6.1455    0.6228  -20.4295 C   0  0  0  0  0  0  0  0  0  0  0  0
   -5.5657    0.7479  -21.8343 C   0  0  0  0  0  0  0  0  0  0  0  0
   -6.3523   -5.4514  -27.2815 H   0  0  0  0  0  0  0  0  0  0  0  0
   -5.7419   -4.0578  -26.3267 H   0  0  0  0  0  0  0  0  0  0  0  0
   -6.1462   -5.6024  -25.5036 H   0  0  0  0  0  0  0  0  0  0  0  0
   -7.2743   -2.9877  -24.6852 H   0  0  0  0  0  0  0  0  0  0  0  0
   -9.8444   -3.5013  -24.5188 H   0  0  0  0  0  0  0  0  0  0  0  0
   -8.7693   -1.7633  -22.8311 H   0  0  0  0  0  0  0  0  0  0  0  0
  -10.3135    0.3987  -25.2651 H   0  0  0  0  0  0  0  0  0  0  0  0
  -12.2367    1.0641  -25.3568 H   0  0  0  0  0  0  0  0  0  0  0  0
  -14.1690    0.3583  -24.1792 H   0  0  0  0  0  0  0  0  0  0  0  0
  -13.6878   -1.7548  -22.5705 H   0  0  0  0  0  0  0  0  0  0  0  0
  -11.9305   -1.7617  -21.7745 H   0  0  0  0  0  0  0  0  0  0  0  0
  -12.0829   -2.7781  -23.2477 H   0  0  0  0  0  0  0  0  0  0  0  0
  -10.4937   -1.1628  -21.7948 H   0  0  0  0  0  0  0  0  0  0  0  0
  -10.4556    0.3541  -22.7562 H   0  0  0  0  0  0  0  0  0  0  0  0
   -7.8622   -1.3689  -21.5994 H   0  0  0  0  0  0  0  0  0  0  0  0
   -8.6239   -0.4239  -18.6646 H   0  0  0  0  0  0  0  0  0  0  0  0
   -5.5487    1.4520  -17.3216 H   0  0  0  0  0  0  0  0  0  0  0  0
   -4.6934    1.6335  -19.3879 H   0  0  0  0  0  0  0  0  0  0  0  0
   -4.9227   -0.1194  -22.0447 H   0  0  0  0  0  0  0  0  0  0  0  0
   -6.3852    0.7830  -22.5672 H   0  0  0  0  0  0  0  0  0  0  0  0
   -4.9712    1.6707  -21.9046 H   0  0  0  0  0  0  0  0  0  0  0  0
 20 21  2  0  0  0  0
 19 20  1  0  0  0  0
 21 22  1  0  0  0  0
 18 19  2  0  0  0  0
 22 23  2  0  0  0  0
 18 23  1  0  0  0  0
 17 18  1  0  0  0  0
 23 24  1  0  0  0  0
 15 16  2  0  0  0  0
 15 17  1  0  0  0  0
 14 15  1  0  0  0  0
  8 14  1  0  0  0  0
 12 13  1  0  0  0  0
  8 13  1  0  0  0  0
 11 12  2  0  0  0  0
  7  8  1  0  0  0  0
  8  9  1  0  0  0  0
  6  7  2  3  0  0  0
 10 11  1  0  0  0  0
  5  6  1  0  0  0  0
  9 10  2  0  0  0  0
  2  5  1  0  0  0  0
  2  3  2  0  0  0  0
  1  2  1  0  0  0  0
  2  4  2  0  0  0  0
  1 25  1  0  0  0  0
  1 26  1  0  0  0  0
  1 27  1  0  0  0  0
  5 28  1  0  0  0  0
  6 29  1  0  0  0  0
  7 30  1  0  0  0  0
  9 31  1  0  0  0  0
 10 32  1  0  0  0  0
 11 33  1  0  0  0  0
 12 34  1  0  0  0  0
 13 35  1  0  0  0  0
 13 36  1  0  0  0  0
 14 37  1  0  0  0  0
 14 38  1  0  0  0  0
 17 39  1  0  0  0  0
 19 40  1  0  0  0  0
 21 41  1  0  0  0  0
 22 42  1  0  0  0  0
 24 43  1  0  0  0  0
 24 44  1  0  0  0  0
 24 45  1  0  0  0  0
M  END
> <Chemgauss4>
-13.189519

$$$$
