stable:False satoms:17 tatoms:24 sratio:0.7083333333333334
  -OEChem-07092417393D

 24 24  0     1  0  0  0  0  0999 V2000
    7.1615   -4.5445   26.3231 H   0  0  0  0  0  0  0  0  0  0  0  0
    8.1940   -4.0954   26.1760 C   0  0  0  0  0  0  0  0  0  0  0  0
    8.9671   -4.9204   26.1742 H   0  0  0  0  0  0  0  0  0  0  0  0
    8.4292   -3.4120   27.0378 H   0  0  0  0  0  0  0  0  0  0  0  0
    8.1530   -3.4313   24.9107 N   0  3  0  0  0  0  0  0  0  0  0  0
    8.8046   -2.6415   24.2938 C   0  0  0  0  0  0  0  0  0  0  0  0
    9.2010   -1.7676   23.5359 C   0  0  0  0  0  0  0  0  0  0  0  0
   11.0632   -0.9987   23.0551 C   0  0  3  0  0  0  0  0  0  0  0  0
   11.8364   -0.3083   23.9888 C   0  5  0  0  0  0  0  0  0  0  0  0
   11.4648    0.2727   24.7608 H   0  0  0  0  0  0  0  0  0  0  0  0
   12.9173   -0.3930   23.8958 H   0  0  0  0  0  0  0  0  0  0  0  0
   12.6278   -1.6565   22.0859 H   0  0  0  0  0  0  0  0  0  0  0  0
   11.7425   -1.9236   22.3597 O   0  0  0  0  0  0  0  0  0  0  0  0
    9.7028   -0.9124   22.7440 C   0  0  3  0  0  0  0  0  0  0  0  0
    9.0628   -0.1116   21.5169 C   0  0  0  0  0  0  0  0  0  0  0  0
    9.7261    0.7782   21.0497 O   0  0  0  0  0  0  0  0  0  0  0  0
    7.8744   -0.5075   21.0607 N   0  0  0  0  0  0  0  0  0  0  0  0
    7.0933    0.0395   20.2966 C   0  0  0  0  0  0  0  0  0  0  0  0
    6.8139    0.1601   18.7313 C   0  0  0  0  0  0  0  0  0  0  0  0
    7.2471   -0.0644   17.7968 H   0  0  0  0  0  0  0  0  0  0  0  0
    4.7955    1.0157   18.4736 H   0  0  0  0  0  0  0  0  0  0  0  0
    5.5765    0.7142   19.1408 C   0  0  0  0  0  0  0  0  0  0  0  0
    5.8034    0.6021   20.4577 C   0  0  0  0  0  0  0  0  0  0  0  0
    5.3258    0.8159   21.4311 H   0  0  0  0  0  0  0  0  0  0  0  0
 19 20  1  0  0  0  0
 21 22  1  0  0  0  0
 19 22  2  0  0  0  0
 18 19  1  0  0  0  0
 22 23  1  0  0  0  0
 18 23  2  0  0  0  0
 17 18  1  0  0  0  0
 23 24  1  0  0  0  0
 15 16  2  0  0  0  0
 15 17  1  0  0  0  0
 14 15  1  0  0  0  0
 12 13  1  0  0  0  0
  8 13  1  0  0  0  0
  8 14  1  0  0  0  0
  7 14  1  0  0  0  0
  8  9  1  0  0  0  0
  6  7  3  0  0  0  0
  9 11  1  0  0  0  0
  9 10  1  0  0  0  0
  5  6  1  0  0  0  0
  2  5  1  0  0  0  0
  2  3  1  0  0  0  0
  1  2  1  0  0  0  0
  2  4  1  0  0  0  0
M  CHG  2   5   1   9  -1
M  END
> <Shapegauss>
-178.369858

$$$$
