stable:False satoms:17 tatoms:24 sratio:0.7083333333333334
  -OEChem-08062406483D

 30 30  0     1  0  0  0  0  0999 V2000
  -11.3297    6.2442  -23.3868 H   0  0  0  0  0  0  0  0  0  0  0  0
  -11.7779    5.3218  -23.8744 C   0  0  0  0  0  0  0  0  0  0  0  0
  -11.7968    5.4601  -24.9963 H   0  0  0  0  0  0  0  0  0  0  0  0
  -12.8413    5.1979  -23.5299 H   0  0  0  0  0  0  0  0  0  0  0  0
  -10.9249    4.2346  -23.5083 N   0  3  0  0  0  0  0  0  0  0  0  0
  -10.9425    3.0395  -23.5245 C   0  0  0  0  0  0  0  0  0  0  0  0
  -10.7681    1.8491  -23.3060 C   0  0  0  0  0  0  0  0  0  0  0  0
  -11.3797    0.0991  -24.2300 C   0  0  3  0  0  0  0  0  0  0  0  0
  -12.7225   -0.2762  -24.2772 C   0  0  0  0  0  0  0  0  0  0  0  0
  -13.2557    0.3597  -24.9992 H   0  0  0  0  0  0  0  0  0  0  0  0
  -13.1726   -0.1562  -23.2807 H   0  0  0  0  0  0  0  0  0  0  0  0
  -10.9572   -0.8029  -25.9116 H   0  0  0  0  0  0  0  0  0  0  0  0
  -10.7393   -0.0125  -25.4038 O   0  0  0  0  0  0  0  0  0  0  0  0
  -10.6006    0.5974  -23.1813 C   0  0  3  0  0  0  0  0  0  0  0  0
   -9.5874   -0.2436  -22.2743 C   0  0  0  0  0  0  0  0  0  0  0  0
   -9.7715   -1.4324  -22.2212 O   0  0  0  0  0  0  0  0  0  0  0  0
   -8.5851    0.4076  -21.6839 N   0  0  0  0  0  0  0  0  0  0  0  0
   -7.8176    0.0542  -20.8012 C   0  0  0  0  0  0  0  0  0  0  0  0
   -6.4241   -0.7039  -20.6395 C   0  0  0  0  0  0  0  0  0  0  0  0
   -5.7289   -1.2770  -21.1869 H   0  0  0  0  0  0  0  0  0  0  0  0
   -5.6963   -0.3406  -18.5875 H   0  0  0  0  0  0  0  0  0  0  0  0
   -6.4682   -0.2015  -19.3161 C   0  0  0  0  0  0  0  0  0  0  0  0
   -7.6335    0.4478  -19.4530 C   0  0  0  0  0  0  0  0  0  0  0  0
   -8.3400    1.0719  -18.8763 H   0  0  0  0  0  0  0  0  0  0  0  0
  -10.7553    4.4239  -22.5411 H   0  0  0  0  0  0  0  0  0  0  0  0
  -11.0927   -0.9294  -23.9656 H   0  0  0  0  0  0  0  0  0  0  0  0
  -12.7983   -1.3283  -24.5892 H   0  0  0  0  0  0  0  0  0  0  0  0
  -11.4168    0.4970  -22.4508 H   0  0  0  0  0  0  0  0  0  0  0  0
   -8.4371    1.3383  -22.0183 H   0  0  0  0  0  0  0  0  0  0  0  0
  -10.0998    4.4345  -24.0367 H   0  0  0  0  0  0  0  0  0  0  0  0
 19 20  1  0  0  0  0
 21 22  1  0  0  0  0
 19 22  2  0  0  0  0
 18 19  1  0  0  0  0
 22 23  1  0  0  0  0
 18 23  2  0  0  0  0
 17 18  1  0  0  0  0
 23 24  1  0  0  0  0
 15 16  2  0  0  0  0
 15 17  1  0  0  0  0
 14 15  1  0  0  0  0
 12 13  1  0  0  0  0
  8 13  1  0  0  0  0
  8 14  1  0  0  0  0
  7 14  1  0  0  0  0
  8  9  1  0  0  0  0
  6  7  3  0  0  0  0
  9 11  1  0  0  0  0
  9 10  1  0  0  0  0
  5  6  1  0  0  0  0
  2  5  1  0  0  0  0
  2  3  1  0  0  0  0
  1  2  1  0  0  0  0
  2  4  1  0  0  0  0
  5 25  1  0  0  0  0
  8 26  1  0  0  0  0
  9 27  1  0  0  0  0
 14 28  1  0  0  0  0
 17 29  1  0  0  0  0
  5 30  1  0  0  0  0
M  CHG  1   5   1
M  END
> <Chemgauss4>
-6.659822

$$$$
