stable:False satoms:17 tatoms:24 sratio:0.7083333333333334
  -OEChem-08062406483D

 30 30  0     1  0  0  0  0  0999 V2000
   11.2580    6.1607   23.2854 H   0  0  0  0  0  0  0  0  0  0  0  0
   11.7236    5.2276   23.7348 C   0  0  0  0  0  0  0  0  0  0  0  0
   11.7554    5.3270   24.8606 H   0  0  0  0  0  0  0  0  0  0  0  0
   12.7840    5.1292   23.3730 H   0  0  0  0  0  0  0  0  0  0  0  0
   10.8793    4.1431   23.3416 N   0  3  0  0  0  0  0  0  0  0  0  0
   10.9117    2.9485   23.3159 C   0  0  0  0  0  0  0  0  0  0  0  0
   10.7489    1.7643   23.0580 C   0  0  0  0  0  0  0  0  0  0  0  0
   11.3937   -0.0089   23.9125 C   0  0  3  0  0  0  0  0  0  0  0  0
   12.7415   -0.3687   23.9298 C   0  0  0  0  0  0  0  0  0  0  0  0
   13.2762    0.2484   24.6670 H   0  0  0  0  0  0  0  0  0  0  0  0
   13.1772   -0.2083   22.9326 H   0  0  0  0  0  0  0  0  0  0  0  0
   11.0040   -0.9741   25.5668 H   0  0  0  0  0  0  0  0  0  0  0  0
   10.7700   -0.1694   25.0897 O   0  0  0  0  0  0  0  0  0  0  0  0
   10.5951    0.5157   22.8918 C   0  0  3  0  0  0  0  0  0  0  0  0
    9.5806   -0.3059   21.9686 C   0  0  0  0  0  0  0  0  0  0  0  0
    9.7785   -1.4898   21.8717 O   0  0  0  0  0  0  0  0  0  0  0  0
    8.5630    0.3527   21.4139 N   0  0  0  0  0  0  0  0  0  0  0  0
    7.7884    0.0206   20.5290 C   0  0  0  0  0  0  0  0  0  0  0  0
    6.4023   -0.7490   20.3583 C   0  0  0  0  0  0  0  0  0  0  0  0
    5.7212   -1.3494   20.8940 H   0  0  0  0  0  0  0  0  0  0  0  0
    5.6437   -0.3236   18.3295 H   0  0  0  0  0  0  0  0  0  0  0  0
    6.4232   -0.2002   19.0528 C   0  0  0  0  0  0  0  0  0  0  0  0
    7.5822    0.4585   19.1978 C   0  0  0  0  0  0  0  0  0  0  0  0
    8.2735    1.1112   18.6345 H   0  0  0  0  0  0  0  0  0  0  0  0
   10.6950    4.3638   22.3838 H   0  0  0  0  0  0  0  0  0  0  0  0
   11.1159   -1.0311   23.6160 H   0  0  0  0  0  0  0  0  0  0  0  0
   12.8341   -1.4300   24.2039 H   0  0  0  0  0  0  0  0  0  0  0  0
   11.4031    0.4511   22.1481 H   0  0  0  0  0  0  0  0  0  0  0  0
    8.4080    1.2693   21.7825 H   0  0  0  0  0  0  0  0  0  0  0  0
   10.0587    4.3141   23.8870 H   0  0  0  0  0  0  0  0  0  0  0  0
 19 20  1  0  0  0  0
 21 22  1  0  0  0  0
 19 22  2  0  0  0  0
 18 19  1  0  0  0  0
 22 23  1  0  0  0  0
 18 23  2  0  0  0  0
 17 18  1  0  0  0  0
 23 24  1  0  0  0  0
 15 16  2  0  0  0  0
 15 17  1  0  0  0  0
 14 15  1  0  0  0  0
 12 13  1  0  0  0  0
  8 13  1  0  0  0  0
  8 14  1  0  0  0  0
  7 14  1  0  0  0  0
  8  9  1  0  0  0  0
  6  7  3  0  0  0  0
  9 11  1  0  0  0  0
  9 10  1  0  0  0  0
  5  6  1  0  0  0  0
  2  5  1  0  0  0  0
  2  3  1  0  0  0  0
  1  2  1  0  0  0  0
  2  4  1  0  0  0  0
  5 25  1  0  0  0  0
  8 26  1  0  0  0  0
  9 27  1  0  0  0  0
 14 28  1  0  0  0  0
 17 29  1  0  0  0  0
  5 30  1  0  0  0  0
M  CHG  1   5   1
M  END
> <Chemgauss4>
-6.773790

$$$$
