stable:False satoms:18 tatoms:24 sratio:0.75
  -OEChem-08052417543D

 28 29  0     1  0  0  0  0  0999 V2000
  -11.9644    0.0715  -23.8492 C   0  0  0  0  0  0  0  0  0  0  0  0
  -13.1270   -0.4623  -24.1564 C   0  0  0  0  0  0  0  0  0  0  0  0
   -9.2141    7.1400  -22.1456 H   0  0  0  0  0  0  0  0  0  0  0  0
   -8.1869    4.8726  -24.9939 H   0  0  0  0  0  0  0  0  0  0  0  0
  -10.9328   -1.1465  -23.9900 C   0  0  3  0  0  0  0  0  0  0  0  0
  -11.7572    1.4142  -22.4108 H   0  0  0  0  0  0  0  0  0  0  0  0
   -9.8687   -1.6106  -24.1574 N   0  0  0  0  0  0  0  0  0  0  0  0
   -9.6700    0.6600  -25.1696 O   0  0  0  0  0  0  0  0  0  0  0  0
   -9.9265    4.4754  -23.7479 C   0  0  0  0  0  0  0  0  0  0  0  0
   -8.7928    0.3269  -25.3464 H   0  0  0  0  0  0  0  0  0  0  0  0
  -13.3063   -0.8891  -25.1247 H   0  0  0  0  0  0  0  0  0  0  0  0
   -9.0902    6.5381  -22.9345 N   0  0  0  0  0  0  0  0  0  0  0  0
   -8.9234    4.1526  -24.6833 C   0  0  0  0  0  0  0  0  0  0  0  0
  -11.8690    1.4074  -23.5051 C   0  0  3  0  0  0  0  0  0  0  0  0
  -10.6001    5.5451  -22.1211 H   0  0  0  0  0  0  0  0  0  0  0  0
   -9.8040    1.9333  -24.7972 C   0  0  0  0  0  0  0  0  0  0  0  0
  -11.0346    3.6675  -23.6253 C   0  0  0  0  0  0  0  0  0  0  0  0
  -10.9096    2.3257  -23.9780 C   0  0  0  0  0  0  0  0  0  0  0  0
   -9.8545    5.5132  -22.8158 N   0  0  0  0  0  0  0  0  0  0  0  0
   -8.8999    2.8927  -25.2224 C   0  0  0  0  0  0  0  0  0  0  0  0
   -8.1886    2.6371  -25.9876 H   0  0  0  0  0  0  0  0  0  0  0  0
  -11.9632    4.0617  -23.2379 H   0  0  0  0  0  0  0  0  0  0  0  0
  -13.9291   -0.4413  -23.4343 H   0  0  0  0  0  0  0  0  0  0  0  0
  -11.2490   -2.2357  -23.9473 O   0  0  0  0  0  0  0  0  0  0  0  0
  -10.7693   -1.1421  -22.9022 H   0  0  0  0  0  0  0  0  0  0  0  0
   -9.4231   -1.6018  -25.0525 H   0  0  0  0  0  0  0  0  0  0  0  0
   -9.3242    7.0331  -23.7713 H   0  0  0  0  0  0  0  0  0  0  0  0
  -12.8416    1.8435  -23.7770 H   0  0  0  0  0  0  0  0  0  0  0  0
  3 12  1  0  0  0  0
 12 19  1  0  0  0  0
 15 19  1  0  0  0  0
  9 19  1  0  0  0  0
  4 13  1  0  0  0  0
  9 13  2  0  0  0  0
  9 17  1  0  0  0  0
 13 20  1  0  0  0  0
 17 22  1  0  0  0  0
 17 18  2  0  0  0  0
 20 21  1  0  0  0  0
 16 20  2  0  0  0  0
 16 18  1  0  0  0  0
 14 18  1  0  0  0  0
  8 16  1  0  0  0  0
  6 14  1  0  0  0  0
  1 14  1  0  0  0  0
  8 10  1  0  0  0  0
  1  2  2  0  0  0  0
  1  5  1  0  0  0  0
  2 23  1  0  0  0  0
  2 11  1  0  0  0  0
  5  7  1  0  0  0  0
  5 24  1  0  0  0  0
  7 24  1  0  0  0  0
  5 25  1  0  0  0  0
  7 26  1  0  0  0  0
 12 27  1  0  0  0  0
 14 28  1  0  0  0  0
M  END
> <Chemgauss4>
-7.150484

$$$$
