stable:False satoms:18 tatoms:24 sratio:0.75
  -OEChem-08052417543D

 28 29  0     1  0  0  0  0  0999 V2000
   12.3117    0.0445   23.7473 C   0  0  0  0  0  0  0  0  0  0  0  0
   13.4408   -0.5104   24.1322 C   0  0  0  0  0  0  0  0  0  0  0  0
    9.4925    7.2422   22.9251 H   0  0  0  0  0  0  0  0  0  0  0  0
    8.1666    4.4658   25.1258 H   0  0  0  0  0  0  0  0  0  0  0  0
   11.3339   -1.2015   23.5048 C   0  0  3  0  0  0  0  0  0  0  0  0
   12.2545    1.6245   22.5576 H   0  0  0  0  0  0  0  0  0  0  0  0
   10.2817   -1.7123   23.4178 N   0  0  0  0  0  0  0  0  0  0  0  0
    9.8185    0.3275   24.7757 O   0  0  0  0  0  0  0  0  0  0  0  0
   10.0912    4.3445   24.1169 C   0  0  0  0  0  0  0  0  0  0  0  0
    8.9429   -0.0521   24.7506 H   0  0  0  0  0  0  0  0  0  0  0  0
   13.4944   -1.1043   25.0245 H   0  0  0  0  0  0  0  0  0  0  0  0
    9.2825    6.5025   23.5645 N   0  0  0  0  0  0  0  0  0  0  0  0
    8.9769    3.8322   24.8107 C   0  0  0  0  0  0  0  0  0  0  0  0
   12.2013    1.4185   23.6368 C   0  0  3  0  0  0  0  0  0  0  0  0
   10.9457    5.7108   22.8333 H   0  0  0  0  0  0  0  0  0  0  0  0
    9.9421    1.6504   24.6625 C   0  0  0  0  0  0  0  0  0  0  0  0
   11.2446    3.5983   24.0269 C   0  0  0  0  0  0  0  0  0  0  0  0
   11.1365    2.2120   24.1101 C   0  0  0  0  0  0  0  0  0  0  0  0
   10.1070    5.5345   23.3857 N   0  0  0  0  0  0  0  0  0  0  0  0
    8.9370    2.4943   25.1056 C   0  0  0  0  0  0  0  0  0  0  0  0
    8.1329    2.0860   25.6918 H   0  0  0  0  0  0  0  0  0  0  0  0
   12.1996    4.0779   23.8664 H   0  0  0  0  0  0  0  0  0  0  0  0
   14.3399   -0.3386   23.5601 H   0  0  0  0  0  0  0  0  0  0  0  0
   11.7078   -2.2567   23.3182 O   0  0  0  0  0  0  0  0  0  0  0  0
   11.3352   -1.0002   22.4234 H   0  0  0  0  0  0  0  0  0  0  0  0
    9.7071   -1.8788   24.2191 H   0  0  0  0  0  0  0  0  0  0  0  0
    9.3631    6.8399   24.5024 H   0  0  0  0  0  0  0  0  0  0  0  0
   13.0988    1.8188   24.1311 H   0  0  0  0  0  0  0  0  0  0  0  0
  3 12  1  0  0  0  0
 12 19  1  0  0  0  0
 15 19  1  0  0  0  0
  9 19  1  0  0  0  0
  4 13  1  0  0  0  0
  9 13  2  0  0  0  0
  9 17  1  0  0  0  0
 13 20  1  0  0  0  0
 17 22  1  0  0  0  0
 17 18  2  0  0  0  0
 20 21  1  0  0  0  0
 16 20  2  0  0  0  0
 16 18  1  0  0  0  0
 14 18  1  0  0  0  0
  8 16  1  0  0  0  0
  6 14  1  0  0  0  0
  1 14  1  0  0  0  0
  8 10  1  0  0  0  0
  1  2  2  0  0  0  0
  1  5  1  0  0  0  0
  2 23  1  0  0  0  0
  2 11  1  0  0  0  0
  5  7  1  0  0  0  0
  5 24  1  0  0  0  0
  7 24  1  0  0  0  0
  5 25  1  0  0  0  0
  7 26  1  0  0  0  0
 12 27  1  0  0  0  0
 14 28  1  0  0  0  0
M  END
> <Chemgauss4>
-7.141069

$$$$
