stable:False satoms:19 tatoms:24 sratio:0.7916666666666666
  -OEChem-07092417293D

 24 24  0     0  0  0  0  0  0999 V2000
    6.8710    0.8038   21.8751 C   0  0  0  0  0  0  0  0  0  0  0  0
    8.9488    1.1373   23.2209 H   0  0  0  0  0  0  0  0  0  0  0  0
   10.4002   -1.6377   22.7169 C   0  3  0  0  0  0  0  0  0  0  0  0
    8.3486   -2.0366   20.7941 H   0  0  0  0  0  0  0  0  0  0  0  0
   11.3503   -3.8377   25.4920 C   0  0  0  0  0  0  0  0  0  0  0  0
    7.7712   -1.1121   20.7656 C   0  0  0  0  0  0  0  0  0  0  0  0
    5.2020   -0.1724   19.1176 H   0  0  0  0  0  0  0  0  0  0  0  0
   12.1106   -1.4415   24.2464 O   0  0  0  0  0  0  0  0  0  0  0  0
   10.1095   -0.4178   22.8311 N   0  3  0  0  0  0  0  0  0  0  0  0
    9.0198    0.2170   22.6419 C   0  3  0  0  0  0  0  0  0  0  0  0
    6.7949    1.5150   22.6928 H   0  0  0  0  0  0  0  0  0  0  0  0
   12.2551   -4.3961   25.2563 H   0  0  0  0  0  0  0  0  0  0  0  0
    5.9654   -0.1273   19.8887 C   0  0  0  0  0  0  0  0  0  0  0  0
    7.9155   -0.0896   21.7719 C   0  0  0  0  0  0  0  0  0  0  0  0
   10.0218   -3.8269   23.8396 H   0  0  0  0  0  0  0  0  0  0  0  0
   10.6573   -4.4816   26.0187 H   0  0  0  0  0  0  0  0  0  0  0  0
    5.8864    0.8052   20.9112 C   0  0  0  0  0  0  0  0  0  0  0  0
   11.6178   -2.9946   26.1249 H   0  0  0  0  0  0  0  0  0  0  0  0
   10.1913   -2.2664   21.8685 H   0  0  0  0  0  0  0  0  0  0  0  0
    6.9532   -0.9902   19.7527 N   0  0  0  0  0  0  0  0  0  0  0  0
   11.1765   -2.1170   23.8121 C   0  0  0  0  0  0  0  0  0  0  0  0
    4.9196    1.7405   21.0602 O   0  0  0  0  0  0  0  0  0  0  0  0
   10.7710   -3.3256   24.2839 N   0  0  0  0  0  0  0  0  0  0  0  0
    4.3263    1.7622   20.3136 H   0  0  0  0  0  0  0  0  0  0  0  0
  7 13  1  0  0  0  0
 13 20  2  0  0  0  0
  6 20  1  0  0  0  0
 13 17  1  0  0  0  0
 22 24  1  0  0  0  0
  4  6  1  0  0  0  0
  6 14  2  0  0  0  0
 17 22  1  0  0  0  0
  1 17  2  0  0  0  0
  1 14  1  0  0  0  0
 10 14  1  0  0  0  0
  3 19  1  0  0  0  0
  1 11  1  0  0  0  0
  9 10  1  0  0  0  0
  2 10  1  0  0  0  0
  3  9  1  0  0  0  0
  3 21  1  0  0  0  0
  8 21  2  0  0  0  0
 21 23  1  0  0  0  0
 15 23  1  0  0  0  0
  5 23  1  0  0  0  0
  5 12  1  0  0  0  0
  5 16  1  0  0  0  0
  5 18  1  0  0  0  0
M  CHG  3   3   1   9   1  10   1
M  END
> <Shapegauss>
-122.806145

$$$$
