REMARK  4 active torsions:
REMARK  status: ('A' for Active; 'I' for Inactive)
REMARK    1  A    between atoms: C_2  and  N_6 
REMARK    2  A    between atoms: C_2  and  C_15 
REMARK    3  A    between atoms: C_8  and  C_10 
REMARK    4  A    between atoms: C_12  and  O_16 
REMARK       I    between atoms: C_15  and  N_17 
ROOT
HETATM    1  C   UNL     1       6.871   0.804  21.875  1.00  0.00     0.052 C 
HETATM    2  C   UNL     1       7.771  -1.112  20.766  1.00  0.00     0.100 C 
HETATM    3  C   UNL     1       5.965  -0.127  19.889  1.00  0.00     0.124 C 
HETATM    4  C   UNL     1       7.915  -0.090  21.772  1.00  0.00    -0.003 C 
HETATM    5  C   UNL     1       5.886   0.805  20.911  1.00  0.00     0.081 C 
HETATM    6  N   UNL     1       6.953  -0.990  19.753  1.00  0.00    -0.372 N 
ATOM      7  HN  UNL     1       7.073  -1.536  18.900  1.00  0.00     0.164 HD
ENDROOT
BRANCH   4   8
HETATM    8  C   UNL     1       9.020   0.217  22.642  1.00  0.00     0.100 C 
HETATM    9  N   UNL     1      10.110  -0.418  22.831  1.00  0.00    -0.370 N 
ATOM     10  HN  UNL     1      10.889   0.170  23.129  1.00  0.00     0.164 HD
BRANCH   9  11
HETATM   11  C   UNL     1      10.400  -1.638  22.717  1.00  0.00     0.162 C 
BRANCH  11  12
HETATM   12  C   UNL     1      11.177  -2.117  23.812  1.00  0.00     0.256 C 
HETATM   13  O   UNL     1      12.111  -1.442  24.246  1.00  0.00    -0.267 OA
HETATM   14  N   UNL     1      10.771  -3.326  24.284  1.00  0.00    -0.361 N 
HETATM   15  C   UNL     1      11.350  -3.838  25.492  1.00  0.00     0.149 C 
HETATM   16  H   UNL     1      10.022  -3.827  23.840  1.00  0.00     0.162 HD
ENDBRANCH  11  12
ENDBRANCH   9  11
ENDBRANCH   4   8
BRANCH   5  17
HETATM   17  O   UNL     1       4.920   1.740  21.060  1.00  0.00    -0.359 OA
HETATM   18  H   UNL     1       4.326   1.762  20.314  1.00  0.00     0.217 HD
ENDBRANCH   5  17
TORSDOF 4
