MODEL 1
REMARK VINA RESULT:    -5.488      0.000      0.000
REMARK INTER + INTRA:          -6.752
REMARK INTER:                  -6.611
REMARK INTRA:                  -0.141
REMARK UNBOUND:                -0.141
REMARK  4 active torsions:
REMARK  status: ('A' for Active; 'I' for Inactive)
REMARK    1  A    between atoms: C_2  and  N_6 
REMARK    2  A    between atoms: C_2  and  C_15 
REMARK    3  A    between atoms: C_8  and  C_10 
REMARK    4  A    between atoms: C_12  and  O_16 
REMARK       I    between atoms: C_15  and  N_17 
ROOT
HETATM    1  C   UNL     1       7.310   0.129  19.445  1.00  0.00     0.052 C 
HETATM    2  C   UNL     1       6.837  -0.902  21.549  1.00  0.00     0.100 C 
HETATM    3  C   UNL     1       5.561  -1.438  19.793  1.00  0.00     0.124 C 
HETATM    4  C   UNL     1       7.724  -0.105  20.739  1.00  0.00    -0.003 C 
HETATM    5  C   UNL     1       6.223  -0.560  18.950  1.00  0.00     0.081 C 
HETATM    6  N   UNL     1       5.934  -1.693  21.032  1.00  0.00    -0.372 N 
ATOM      7  HN  UNL     1       5.537  -2.470  21.561  1.00  0.00     0.164 HD
ENDROOT
BRANCH   4   8
HETATM    8  C   UNL     1       9.032   0.423  21.026  1.00  0.00     0.100 C 
HETATM    9  N   UNL     1      10.082  -0.176  21.432  1.00  0.00    -0.370 N 
ATOM     10  HN  UNL     1      10.954   0.277  21.157  1.00  0.00     0.164 HD
BRANCH   9  11
HETATM   11  C   UNL     1      10.239  -1.225  22.111  1.00  0.00     0.162 C 
BRANCH  11  12
HETATM   12  C   UNL     1      11.461  -1.219  22.845  1.00  0.00     0.256 C 
HETATM   13  O   UNL     1      12.367  -1.994  22.538  1.00  0.00    -0.267 OA
HETATM   14  N   UNL     1      11.492  -0.304  23.850  1.00  0.00    -0.361 N 
HETATM   15  C   UNL     1      12.722  -0.071  24.550  1.00  0.00     0.149 C 
HETATM   16  H   UNL     1      10.687   0.261  24.058  1.00  0.00     0.162 HD
ENDBRANCH  11  12
ENDBRANCH   9  11
ENDBRANCH   4   8
BRANCH   5  17
HETATM   17  O   UNL     1       5.906  -0.306  17.660  1.00  0.00    -0.359 OA
HETATM   18  H   UNL     1       5.752  -1.107  17.166  1.00  0.00     0.217 HD
ENDBRANCH   5  17
TORSDOF 4
ENDMDL
MODEL 2
REMARK VINA RESULT:    -5.362      3.733      6.412
REMARK INTER + INTRA:          -6.600
REMARK INTER:                  -6.346
REMARK INTRA:                  -0.254
REMARK UNBOUND:                -0.141
REMARK  4 active torsions:
REMARK  status: ('A' for Active; 'I' for Inactive)
REMARK    1  A    between atoms: C_2  and  N_6 
REMARK    2  A    between atoms: C_2  and  C_15 
REMARK    3  A    between atoms: C_8  and  C_10 
REMARK    4  A    between atoms: C_12  and  O_16 
REMARK       I    between atoms: C_15  and  N_17 
ROOT
HETATM    1  C   UNL     1      11.515  -1.170  23.610  1.00  0.00     0.052 C 
HETATM    2  C   UNL     1       9.545  -0.290  24.637  1.00  0.00     0.100 C 
HETATM    3  C   UNL     1      11.512   0.652  25.131  1.00  0.00     0.124 C 
HETATM    4  C   UNL     1      10.137  -1.152  23.645  1.00  0.00    -0.003 C 
HETATM    5  C   UNL     1      12.221  -0.244  24.347  1.00  0.00     0.081 C 
HETATM    6  N   UNL     1      10.195   0.705  25.182  1.00  0.00    -0.372 N 
ATOM      7  HN  UNL     1       9.707   1.484  25.625  1.00  0.00     0.164 HD
ENDROOT
BRANCH   4   8
HETATM    8  C   UNL     1       9.527  -1.941  22.607  1.00  0.00     0.100 C 
HETATM    9  N   UNL     1       8.657  -2.870  22.694  1.00  0.00    -0.370 N 
ATOM     10  HN  UNL     1       8.074  -2.974  21.863  1.00  0.00     0.164 HD
BRANCH   9  11
HETATM   11  C   UNL     1       8.385  -3.680  23.618  1.00  0.00     0.162 C 
BRANCH  11  12
HETATM   12  C   UNL     1       7.372  -4.611  23.245  1.00  0.00     0.256 C 
HETATM   13  O   UNL     1       6.488  -4.914  24.047  1.00  0.00    -0.267 OA
HETATM   14  N   UNL     1       7.499  -5.078  21.974  1.00  0.00    -0.361 N 
HETATM   15  C   UNL     1       6.451  -5.880  21.413  1.00  0.00     0.149 C 
HETATM   16  H   UNL     1       8.279  -4.807  21.401  1.00  0.00     0.162 HD
ENDBRANCH  11  12
ENDBRANCH   9  11
ENDBRANCH   4   8
BRANCH   5  17
HETATM   17  O   UNL     1      13.567  -0.300  24.226  1.00  0.00    -0.359 OA
HETATM   18  H   UNL     1      13.872   0.129  23.430  1.00  0.00     0.217 HD
ENDBRANCH   5  17
TORSDOF 4
ENDMDL
MODEL 3
REMARK VINA RESULT:    -5.244     13.224     15.430
REMARK INTER + INTRA:          -6.459
REMARK INTER:                  -6.182
REMARK INTRA:                  -0.277
REMARK UNBOUND:                -0.141
REMARK  4 active torsions:
REMARK  status: ('A' for Active; 'I' for Inactive)
REMARK    1  A    between atoms: C_2  and  N_6 
REMARK    2  A    between atoms: C_2  and  C_15 
REMARK    3  A    between atoms: C_8  and  C_10 
REMARK    4  A    between atoms: C_12  and  O_16 
REMARK       I    between atoms: C_15  and  N_17 
ROOT
HETATM    1  C   UNL     1      22.124  -1.836  24.098  1.00  0.00     0.052 C 
HETATM    2  C   UNL     1      23.014  -1.728  26.314  1.00  0.00     0.100 C 
HETATM    3  C   UNL     1      20.941  -0.966  25.962  1.00  0.00     0.124 C 
HETATM    4  C   UNL     1      23.129  -2.215  24.962  1.00  0.00    -0.003 C 
HETATM    5  C   UNL     1      21.000  -1.218  24.602  1.00  0.00     0.081 C 
HETATM    6  N   UNL     1      21.878  -1.322  26.819  1.00  0.00    -0.372 N 
ATOM      7  HN  UNL     1      21.725  -1.283  27.827  1.00  0.00     0.164 HD
ENDROOT
BRANCH   4   8
HETATM    8  C   UNL     1      24.083  -3.117  24.371  1.00  0.00     0.100 C 
HETATM    9  N   UNL     1      24.082  -4.392  24.330  1.00  0.00    -0.370 N 
ATOM     10  HN  UNL     1      24.579  -4.784  23.529  1.00  0.00     0.164 HD
BRANCH   9  11
HETATM   11  C   UNL     1      23.579  -5.255  25.097  1.00  0.00     0.162 C 
BRANCH  11  12
HETATM   12  C   UNL     1      24.212  -6.527  24.973  1.00  0.00     0.256 C 
HETATM   13  O   UNL     1      24.111  -7.355  25.879  1.00  0.00    -0.267 OA
HETATM   14  N   UNL     1      24.884  -6.693  23.803  1.00  0.00    -0.361 N 
HETATM   15  C   UNL     1      25.414  -7.984  23.475  1.00  0.00     0.149 C 
HETATM   16  H   UNL     1      24.949  -5.944  23.136  1.00  0.00     0.162 HD
ENDBRANCH  11  12
ENDBRANCH   9  11
ENDBRANCH   4   8
BRANCH   5  17
HETATM   17  O   UNL     1      20.041  -0.917  23.696  1.00  0.00    -0.359 OA
HETATM   18  H   UNL     1      19.559  -0.129  23.935  1.00  0.00     0.217 HD
ENDBRANCH   5  17
TORSDOF 4
ENDMDL
MODEL 4
REMARK VINA RESULT:    -5.210      3.386      5.561
REMARK INTER + INTRA:          -6.417
REMARK INTER:                  -6.141
REMARK INTRA:                  -0.277
REMARK UNBOUND:                -0.141
REMARK  4 active torsions:
REMARK  status: ('A' for Active; 'I' for Inactive)
REMARK    1  A    between atoms: C_2  and  N_6 
REMARK    2  A    between atoms: C_2  and  C_15 
REMARK    3  A    between atoms: C_8  and  C_10 
REMARK    4  A    between atoms: C_12  and  O_16 
REMARK       I    between atoms: C_15  and  N_17 
ROOT
HETATM    1  C   UNL     1      10.552   0.311  22.450  1.00  0.00     0.052 C 
HETATM    2  C   UNL     1      10.415  -0.117  24.797  1.00  0.00     0.100 C 
HETATM    3  C   UNL     1      10.207   1.994  24.087  1.00  0.00     0.124 C 
HETATM    4  C   UNL     1      10.446  -0.631  23.451  1.00  0.00    -0.003 C 
HETATM    5  C   UNL     1      10.411   1.646  22.762  1.00  0.00     0.081 C 
HETATM    6  N   UNL     1      10.090   1.121  25.069  1.00  0.00    -0.372 N 
ATOM      7  HN  UNL     1       9.764   1.397  25.995  1.00  0.00     0.164 HD
ENDROOT
BRANCH   4   8
HETATM    8  C   UNL     1      10.294  -1.975  22.960  1.00  0.00     0.100 C 
HETATM    9  N   UNL     1       9.241  -2.596  22.595  1.00  0.00    -0.370 N 
ATOM     10  HN  UNL     1       9.407  -3.330  21.906  1.00  0.00     0.164 HD
BRANCH   9  11
HETATM   11  C   UNL     1       8.034  -2.468  22.930  1.00  0.00     0.162 C 
BRANCH  11  12
HETATM   12  C   UNL     1       7.199  -3.466  22.349  1.00  0.00     0.256 C 
HETATM   13  O   UNL     1       6.116  -3.152  21.856  1.00  0.00    -0.267 OA
HETATM   14  N   UNL     1       7.727  -4.719  22.401  1.00  0.00    -0.361 N 
HETATM   15  C   UNL     1       7.074  -5.784  21.696  1.00  0.00     0.149 C 
HETATM   16  H   UNL     1       8.602  -4.890  22.862  1.00  0.00     0.162 HD
ENDBRANCH  11  12
ENDBRANCH   9  11
ENDBRANCH   4   8
BRANCH   5  17
HETATM   17  O   UNL     1      10.485   2.503  21.718  1.00  0.00    -0.359 OA
HETATM   18  H   UNL     1      11.175   2.262  21.106  1.00  0.00     0.217 HD
ENDBRANCH   5  17
TORSDOF 4
ENDMDL
MODEL 5
REMARK VINA RESULT:    -5.207      2.225      2.401
REMARK INTER + INTRA:          -6.414
REMARK INTER:                  -6.155
REMARK INTRA:                  -0.259
REMARK UNBOUND:                -0.141
REMARK  4 active torsions:
REMARK  status: ('A' for Active; 'I' for Inactive)
REMARK    1  A    between atoms: C_2  and  N_6 
REMARK    2  A    between atoms: C_2  and  C_15 
REMARK    3  A    between atoms: C_8  and  C_10 
REMARK    4  A    between atoms: C_12  and  O_16 
REMARK       I    between atoms: C_15  and  N_17 
ROOT
HETATM    1  C   UNL     1       7.135  -0.013  19.039  1.00  0.00     0.052 C 
HETATM    2  C   UNL     1       6.498   1.379  20.874  1.00  0.00     0.100 C 
HETATM    3  C   UNL     1       4.940   0.826  19.369  1.00  0.00     0.124 C 
HETATM    4  C   UNL     1       7.482   0.522  20.261  1.00  0.00    -0.003 C 
HETATM    5  C   UNL     1       5.840   0.120  18.587  1.00  0.00     0.081 C 
HETATM    6  N   UNL     1       5.232   1.342  20.547  1.00  0.00    -0.372 N 
ATOM      7  HN  UNL     1       4.508   1.696  21.171  1.00  0.00     0.164 HD
ENDROOT
BRANCH   4   8
HETATM    8  C   UNL     1       8.748   0.050  20.755  1.00  0.00     0.100 C 
HETATM    9  N   UNL     1       9.032  -1.031  21.370  1.00  0.00    -0.370 N 
ATOM     10  HN  UNL     1       9.993  -1.347  21.236  1.00  0.00     0.164 HD
BRANCH   9  11
HETATM   11  C   UNL     1       8.343  -1.779  22.112  1.00  0.00     0.162 C 
BRANCH  11  12
HETATM   12  C   UNL     1       9.016  -2.112  23.324  1.00  0.00     0.256 C 
HETATM   13  O   UNL     1      10.247  -2.111  23.365  1.00  0.00    -0.267 OA
HETATM   14  N   UNL     1       8.177  -2.400  24.355  1.00  0.00    -0.361 N 
HETATM   15  C   UNL     1       8.718  -2.576  25.671  1.00  0.00     0.149 C 
HETATM   16  H   UNL     1       7.182  -2.417  24.220  1.00  0.00     0.162 HD
ENDBRANCH  11  12
ENDBRANCH   9  11
ENDBRANCH   4   8
BRANCH   5  17
HETATM   17  O   UNL     1       5.569  -0.469  17.400  1.00  0.00    -0.359 OA
HETATM   18  H   UNL     1       6.260  -0.316  16.760  1.00  0.00     0.217 HD
ENDBRANCH   5  17
TORSDOF 4
ENDMDL
MODEL 6
REMARK VINA RESULT:    -5.183      4.494      6.444
REMARK INTER + INTRA:          -6.385
REMARK INTER:                  -6.053
REMARK INTRA:                  -0.332
REMARK UNBOUND:                -0.141
REMARK  4 active torsions:
REMARK  status: ('A' for Active; 'I' for Inactive)
REMARK    1  A    between atoms: C_2  and  N_6 
REMARK    2  A    between atoms: C_2  and  C_15 
REMARK    3  A    between atoms: C_8  and  C_10 
REMARK    4  A    between atoms: C_12  and  O_16 
REMARK       I    between atoms: C_15  and  N_17 
ROOT
HETATM    1  C   UNL     1      11.623   3.731  23.641  1.00  0.00     0.052 C 
HETATM    2  C   UNL     1       9.627   4.816  24.382  1.00  0.00     0.100 C 
HETATM    3  C   UNL     1      11.492   6.035  24.193  1.00  0.00     0.124 C 
HETATM    4  C   UNL     1      10.258   3.651  23.813  1.00  0.00    -0.003 C 
HETATM    5  C   UNL     1      12.255   4.944  23.813  1.00  0.00     0.081 C 
HETATM    6  N   UNL     1      10.184   5.999  24.358  1.00  0.00    -0.372 N 
ATOM      7  HN  UNL     1       9.634   6.851  24.462  1.00  0.00     0.164 HD
ENDROOT
BRANCH   4   8
HETATM    8  C   UNL     1       9.686   2.433  23.303  1.00  0.00     0.100 C 
HETATM    9  N   UNL     1       9.443   1.333  23.902  1.00  0.00    -0.370 N 
ATOM     10  HN  UNL     1       8.677   0.796  23.493  1.00  0.00     0.164 HD
BRANCH   9  11
HETATM   11  C   UNL     1       9.974   0.789  24.906  1.00  0.00     0.162 C 
BRANCH  11  12
HETATM   12  C   UNL     1      10.951  -0.184  24.543  1.00  0.00     0.256 C 
HETATM   13  O   UNL     1      10.597  -1.297  24.154  1.00  0.00    -0.267 OA
HETATM   14  N   UNL     1      12.233   0.255  24.667  1.00  0.00    -0.361 N 
HETATM   15  C   UNL     1      13.303  -0.559  24.168  1.00  0.00     0.149 C 
HETATM   16  H   UNL     1      12.431   1.168  25.034  1.00  0.00     0.162 HD
ENDBRANCH  11  12
ENDBRANCH   9  11
ENDBRANCH   4   8
BRANCH   5  17
HETATM   17  O   UNL     1      13.588   4.948  23.584  1.00  0.00    -0.359 OA
HETATM   18  H   UNL     1      13.822   5.506  22.846  1.00  0.00     0.217 HD
ENDBRANCH   5  17
TORSDOF 4
ENDMDL
MODEL 7
REMARK VINA RESULT:    -5.170      4.488      5.861
REMARK INTER + INTRA:          -6.369
REMARK INTER:                  -6.211
REMARK INTRA:                  -0.159
REMARK UNBOUND:                -0.141
REMARK  4 active torsions:
REMARK  status: ('A' for Active; 'I' for Inactive)
REMARK    1  A    between atoms: C_2  and  N_6 
REMARK    2  A    between atoms: C_2  and  C_15 
REMARK    3  A    between atoms: C_8  and  C_10 
REMARK    4  A    between atoms: C_12  and  O_16 
REMARK       I    between atoms: C_15  and  N_17 
ROOT
HETATM    1  C   UNL     1       8.279  -4.254  26.615  1.00  0.00     0.052 C 
HETATM    2  C   UNL     1       7.045  -3.988  24.586  1.00  0.00     0.100 C 
HETATM    3  C   UNL     1       6.465  -5.644  25.973  1.00  0.00     0.124 C 
HETATM    4  C   UNL     1       8.012  -3.464  25.517  1.00  0.00    -0.003 C 
HETATM    5  C   UNL     1       7.485  -5.353  26.865  1.00  0.00     0.081 C 
HETATM    6  N   UNL     1       6.175  -4.906  24.919  1.00  0.00    -0.372 N 
ATOM      7  HN  UNL     1       5.315  -5.045  24.388  1.00  0.00     0.164 HD
ENDROOT
BRANCH   4   8
HETATM    8  C   UNL     1       8.694  -2.197  25.545  1.00  0.00     0.100 C 
HETATM    9  N   UNL     1       9.246  -1.547  24.596  1.00  0.00    -0.370 N 
ATOM     10  HN  UNL     1       9.270  -0.537  24.741  1.00  0.00     0.164 HD
BRANCH   9  11
HETATM   11  C   UNL     1       9.767  -1.924  23.514  1.00  0.00     0.162 C 
BRANCH  11  12
HETATM   12  C   UNL     1      11.114  -1.479  23.374  1.00  0.00     0.256 C 
HETATM   13  O   UNL     1      11.792  -1.859  22.419  1.00  0.00    -0.267 OA
HETATM   14  N   UNL     1      11.516  -0.634  24.360  1.00  0.00    -0.361 N 
HETATM   15  C   UNL     1      12.784   0.026  24.245  1.00  0.00     0.149 C 
HETATM   16  H   UNL     1      10.907  -0.411  25.127  1.00  0.00     0.162 HD
ENDBRANCH  11  12
ENDBRANCH   9  11
ENDBRANCH   4   8
BRANCH   5  17
HETATM   17  O   UNL     1       7.784  -6.051  27.984  1.00  0.00    -0.359 OA
HETATM   18  H   UNL     1       7.824  -5.491  28.754  1.00  0.00     0.217 HD
ENDBRANCH   5  17
TORSDOF 4
ENDMDL
MODEL 8
REMARK VINA RESULT:    -5.122      2.239      2.563
REMARK INTER + INTRA:          -6.311
REMARK INTER:                  -6.032
REMARK INTRA:                  -0.279
REMARK UNBOUND:                -0.141
REMARK  4 active torsions:
REMARK  status: ('A' for Active; 'I' for Inactive)
REMARK    1  A    between atoms: C_2  and  N_6 
REMARK    2  A    between atoms: C_2  and  C_15 
REMARK    3  A    between atoms: C_8  and  C_10 
REMARK    4  A    between atoms: C_12  and  O_16 
REMARK       I    between atoms: C_15  and  N_17 
ROOT
HETATM    1  C   UNL     1       5.621   1.510  20.353  1.00  0.00     0.052 C 
HETATM    2  C   UNL     1       7.360   0.058  19.592  1.00  0.00     0.100 C 
HETATM    3  C   UNL     1       6.021   1.001  18.069  1.00  0.00     0.124 C 
HETATM    4  C   UNL     1       6.762   0.806  20.670  1.00  0.00    -0.003 C 
HETATM    5  C   UNL     1       5.248   1.631  19.031  1.00  0.00     0.081 C 
HETATM    6  N   UNL     1       7.123   0.327  18.335  1.00  0.00    -0.372 N 
ATOM      7  HN  UNL     1       7.760   0.031  17.595  1.00  0.00     0.164 HD
ENDROOT
BRANCH   4   8
HETATM    8  C   UNL     1       7.210   1.019  22.021  1.00  0.00     0.100 C 
HETATM    9  N   UNL     1       8.240   1.637  22.451  1.00  0.00    -0.370 N 
ATOM     10  HN  UNL     1       8.132   2.027  23.388  1.00  0.00     0.164 HD
BRANCH   9  11
HETATM   11  C   UNL     1       9.366   1.853  21.930  1.00  0.00     0.162 C 
BRANCH  11  12
HETATM   12  C   UNL     1      10.366   0.956  22.405  1.00  0.00     0.256 C 
HETATM   13  O   UNL     1      10.627  -0.067  21.771  1.00  0.00    -0.267 OA
HETATM   14  N   UNL     1      10.958   1.357  23.562  1.00  0.00    -0.361 N 
HETATM   15  C   UNL     1      12.099   0.641  24.052  1.00  0.00     0.149 C 
HETATM   16  H   UNL     1      10.652   2.189  24.035  1.00  0.00     0.162 HD
ENDBRANCH  11  12
ENDBRANCH   9  11
ENDBRANCH   4   8
BRANCH   5  17
HETATM   17  O   UNL     1       4.141   2.373  18.799  1.00  0.00    -0.359 OA
HETATM   18  H   UNL     1       4.117   3.158  19.342  1.00  0.00     0.217 HD
ENDBRANCH   5  17
TORSDOF 4
ENDMDL
MODEL 9
REMARK VINA RESULT:    -4.997      4.643      6.043
REMARK INTER + INTRA:          -6.160
REMARK INTER:                  -5.784
REMARK INTRA:                  -0.376
REMARK UNBOUND:                -0.141
REMARK  4 active torsions:
REMARK  status: ('A' for Active; 'I' for Inactive)
REMARK    1  A    between atoms: C_2  and  N_6 
REMARK    2  A    between atoms: C_2  and  C_15 
REMARK    3  A    between atoms: C_8  and  C_10 
REMARK    4  A    between atoms: C_12  and  O_16 
REMARK       I    between atoms: C_15  and  N_17 
ROOT
HETATM    1  C   UNL     1       7.714  -5.318  25.229  1.00  0.00     0.052 C 
HETATM    2  C   UNL     1       5.585  -4.333  24.772  1.00  0.00     0.100 C 
HETATM    3  C   UNL     1       6.213  -4.567  26.906  1.00  0.00     0.124 C 
HETATM    4  C   UNL     1       6.862  -4.790  24.283  1.00  0.00    -0.003 C 
HETATM    5  C   UNL     1       7.402  -5.192  26.565  1.00  0.00     0.081 C 
HETATM    6  N   UNL     1       5.379  -4.041  26.030  1.00  0.00    -0.372 N 
ATOM      7  HN  UNL     1       4.610  -3.436  26.320  1.00  0.00     0.164 HD
ENDROOT
BRANCH   4   8
HETATM    8  C   UNL     1       7.445  -4.705  22.970  1.00  0.00     0.100 C 
HETATM    9  N   UNL     1       8.135  -3.771  22.442  1.00  0.00    -0.370 N 
ATOM     10  HN  UNL     1       8.781  -4.087  21.718  1.00  0.00     0.164 HD
BRANCH   9  11
HETATM   11  C   UNL     1       8.163  -2.530  22.651  1.00  0.00     0.162 C 
BRANCH  11  12
HETATM   12  C   UNL     1       9.405  -2.100  23.205  1.00  0.00     0.256 C 
HETATM   13  O   UNL     1       9.537  -2.009  24.426  1.00  0.00    -0.267 OA
HETATM   14  N   UNL     1      10.358  -1.834  22.271  1.00  0.00    -0.361 N 
HETATM   15  C   UNL     1      11.701  -1.566  22.696  1.00  0.00     0.149 C 
HETATM   16  H   UNL     1      10.149  -1.895  21.290  1.00  0.00     0.162 HD
ENDBRANCH  11  12
ENDBRANCH   9  11
ENDBRANCH   4   8
BRANCH   5  17
HETATM   17  O   UNL     1       8.309  -5.698  27.430  1.00  0.00    -0.359 OA
HETATM   18  H   UNL     1       8.018  -6.523  27.812  1.00  0.00     0.217 HD
ENDBRANCH   5  17
TORSDOF 4
ENDMDL
