stable:False satoms:10 tatoms:24 sratio:0.4166666666666667
  -OEChem-07092417413D

 24 25  0     0  0  0  0  0  0999 V2000
    6.3485   -4.8202   26.3755 Cl  0  0  0  0  0  0  0  0  0  0  0  0
    8.1851   -4.3568   26.1321 S   0  0  0  0  0  0  0  0  0  0  0  0
    8.9556   -5.5749   26.0880 O   0  0  0  0  0  0  0  0  0  0  0  0
    8.5682   -3.4767   27.1882 O   0  0  0  0  0  0  0  0  0  0  0  0
    8.0776   -3.6365   24.6984 N   0  0  0  0  0  0  0  0  0  0  0  0
    8.9360   -2.9058   24.2206 C   0  0  0  0  0  0  0  0  0  0  0  0
    9.5333   -2.0870   23.7154 C   0  0  0  0  0  0  0  0  0  0  0  0
   10.2801   -1.0711   23.1805 C   0  0  0  0  0  0  0  0  0  0  0  0
   11.5007   -0.4422   23.7962 C   0  0  0  0  0  0  0  0  0  0  0  0
   11.7053    0.3251   24.6219 C   0  0  0  0  0  0  0  0  0  0  0  0
   13.5299   -0.5404   23.2509 H   0  0  0  0  0  0  0  0  0  0  0  0
   12.6366   -1.0086   23.0158 C   0  5  0  0  0  0  0  0  0  0  0  0
   12.4149   -1.8003   22.3961 H   0  0  0  0  0  0  0  0  0  0  0  0
    9.8339   -0.5154   22.1804 C   0  0  0  0  0  0  0  0  0  0  0  0
    9.0385    0.1963   21.2974 C   0  0  0  0  0  0  0  0  0  0  0  0
    9.4359    1.2346   20.8442 O   0  0  0  0  0  0  0  0  0  0  0  0
    7.8566   -0.4448   21.1450 N   0  0  0  0  0  0  0  0  0  0  0  0
    7.1121    0.0160   20.2367 C   0  0  0  0  0  0  0  0  0  0  0  0
    7.1104    0.1121   18.9222 C   0  0  0  0  0  0  0  0  0  0  0  0
    6.6004    0.4120   17.8587 N   0  0  0  0  0  0  0  0  0  0  0  0
    5.5920    0.8861   18.3670 C   0  0  0  0  0  0  0  0  0  0  0  0
    5.2000    0.9711   19.5257 C   0  0  0  0  0  0  0  0  0  0  0  0
    5.7434    0.6063   20.6232 C   0  0  0  0  0  0  0  0  0  0  0  0
    5.3889    0.6310   21.6166 H   0  0  0  0  0  0  0  0  0  0  0  0
 20 21  2  0  0  0  0
 19 20  1  0  0  0  0
 19 21  1  0  0  0  0
 21 22  1  0  0  0  0
 18 19  2  0  0  0  0
 22 23  2  0  0  0  0
 18 23  1  0  0  0  0
 17 18  1  0  0  0  0
 23 24  1  0  0  0  0
 15 16  2  0  0  0  0
 15 17  1  0  0  0  0
 14 15  1  0  0  0  0
  8 14  2  3  0  0  0
 12 13  1  0  0  0  0
 11 12  1  0  0  0  0
  9 12  1  0  0  0  0
  7  8  1  0  0  0  0
  8  9  1  0  0  0  0
  6  7  3  0  0  0  0
  9 10  2  0  0  0  0
  5  6  1  0  0  0  0
  2  5  1  0  0  0  0
  2  3  2  0  0  0  0
  1  2  1  0  0  0  0
  2  4  2  0  0  0  0
M  CHG  1  12  -1
M  END
> <Shapegauss>
-259.204071

$$$$
