stable:False satoms:10 tatoms:24 sratio:0.4166666666666667
  -OEChem-08062408483D

 31 32  0     0  0  0  0  0  0999 V2000
    5.9618   -4.1226   26.9376 Cl  0  0  0  0  0  0  0  0  0  0  0  0
    7.8396   -3.9461   26.6376 S   0  0  0  0  0  0  0  0  0  0  0  0
    8.4340   -5.2575   26.7157 O   0  0  0  0  0  0  0  0  0  0  0  0
    8.3609   -3.0248   27.5948 O   0  0  0  0  0  0  0  0  0  0  0  0
    7.8040   -3.3676   25.1376 N   0  0  0  0  0  0  0  0  0  0  0  0
    8.7452   -2.8157   24.5821 C   0  0  0  0  0  0  0  0  0  0  0  0
    9.4394   -2.1436   23.9915 C   0  0  0  0  0  0  0  0  0  0  0  0
   10.3083   -1.3011   23.3503 C   0  0  0  0  0  0  0  0  0  0  0  0
   11.6157   -0.7885   23.8909 C   0  0  0  0  0  0  0  0  0  0  0  0
   11.9402    0.0229   24.6316 C   0  0  0  0  0  0  0  0  0  0  0  0
   12.5514   -1.4103   22.0852 H   0  0  0  0  0  0  0  0  0  0  0  0
   12.6472   -1.5838   23.1672 C   0  0  0  0  0  0  0  0  0  0  0  0
   13.6492   -1.2754   23.5005 H   0  0  0  0  0  0  0  0  0  0  0  0
    9.9232   -0.7936   22.3004 C   0  0  0  0  0  0  0  0  0  0  0  0
    9.2161   -0.0719   21.3528 C   0  0  0  0  0  0  0  0  0  0  0  0
    9.7436    0.8495   20.7923 O   0  0  0  0  0  0  0  0  0  0  0  0
    7.9544   -0.5547   21.2740 N   0  0  0  0  0  0  0  0  0  0  0  0
    7.2626   -0.0898   20.3269 C   0  0  0  0  0  0  0  0  0  0  0  0
    7.2483   -0.1288   19.0095 C   0  0  0  0  0  0  0  0  0  0  0  0
    6.7635    0.1292   17.9234 N   0  0  0  0  0  0  0  0  0  0  0  0
    5.8402    0.7881   18.3854 C   0  0  0  0  0  0  0  0  0  0  0  0
    5.4866    1.0443   19.5311 C   0  0  0  0  0  0  0  0  0  0  0  0
    5.9961    0.7212   20.6575 C   0  0  0  0  0  0  0  0  0  0  0  0
    5.6680    0.8959   21.6450 H   0  0  0  0  0  0  0  0  0  0  0  0
    7.0573   -2.7026   25.1243 H   0  0  0  0  0  0  0  0  0  0  0  0
   11.1974    0.6333   25.1235 H   0  0  0  0  0  0  0  0  0  0  0  0
   12.9890    0.1776   24.8379 H   0  0  0  0  0  0  0  0  0  0  0  0
   12.5026   -2.6530   23.3814 H   0  0  0  0  0  0  0  0  0  0  0  0
   10.6772   -1.2059   21.6464 H   0  0  0  0  0  0  0  0  0  0  0  0
    7.5967   -1.2301   21.9189 H   0  0  0  0  0  0  0  0  0  0  0  0
    4.5920    1.6454   19.6000 H   0  0  0  0  0  0  0  0  0  0  0  0
 20 21  2  0  0  0  0
 19 20  1  0  0  0  0
 19 21  1  0  0  0  0
 21 22  1  0  0  0  0
 18 19  2  0  0  0  0
 22 23  2  0  0  0  0
 18 23  1  0  0  0  0
 17 18  1  0  0  0  0
 23 24  1  0  0  0  0
 15 16  2  0  0  0  0
 15 17  1  0  0  0  0
 14 15  1  0  0  0  0
  8 14  2  3  0  0  0
 12 13  1  0  0  0  0
 11 12  1  0  0  0  0
  9 12  1  0  0  0  0
  7  8  1  0  0  0  0
  8  9  1  0  0  0  0
  6  7  3  0  0  0  0
  9 10  2  0  0  0  0
  5  6  1  0  0  0  0
  2  5  1  0  0  0  0
  2  3  2  0  0  0  0
  1  2  1  0  0  0  0
  2  4  2  0  0  0  0
  5 25  1  0  0  0  0
 10 26  1  0  0  0  0
 10 27  1  0  0  0  0
 12 28  1  0  0  0  0
 14 29  1  0  0  0  0
 17 30  1  0  0  0  0
 22 31  1  0  0  0  0
M  END
> <Chemgauss4>
-7.895360

$$$$
