stable:False satoms:10 tatoms:24 sratio:0.4166666666666667
  -OEChem-08062408483D

 31 32  0     0  0  0  0  0  0999 V2000
   -6.0574   -4.0453  -26.8379 Cl  0  0  0  0  0  0  0  0  0  0  0  0
   -7.9351   -3.8688  -26.5379 S   0  0  0  0  0  0  0  0  0  0  0  0
   -8.5296   -5.1803  -26.6161 O   0  0  0  0  0  0  0  0  0  0  0  0
   -8.4565   -2.9476  -27.4951 O   0  0  0  0  0  0  0  0  0  0  0  0
   -7.8996   -3.2903  -25.0379 N   0  0  0  0  0  0  0  0  0  0  0  0
   -8.8408   -2.7385  -24.4824 C   0  0  0  0  0  0  0  0  0  0  0  0
   -9.5350   -2.0664  -23.8919 C   0  0  0  0  0  0  0  0  0  0  0  0
  -10.4038   -1.2239  -23.2506 C   0  0  0  0  0  0  0  0  0  0  0  0
  -11.7113   -0.7113  -23.7912 C   0  0  0  0  0  0  0  0  0  0  0  0
  -12.0358    0.1002  -24.5319 C   0  0  0  0  0  0  0  0  0  0  0  0
  -12.6469   -1.3330  -21.9856 H   0  0  0  0  0  0  0  0  0  0  0  0
  -12.7428   -1.5065  -23.0676 C   0  0  0  0  0  0  0  0  0  0  0  0
  -13.7447   -1.1982  -23.4009 H   0  0  0  0  0  0  0  0  0  0  0  0
  -10.0188   -0.7163  -22.2007 C   0  0  0  0  0  0  0  0  0  0  0  0
   -9.3116    0.0054  -21.2531 C   0  0  0  0  0  0  0  0  0  0  0  0
   -9.8391    0.9268  -20.6926 O   0  0  0  0  0  0  0  0  0  0  0  0
   -8.0500   -0.4775  -21.1743 N   0  0  0  0  0  0  0  0  0  0  0  0
   -7.3582   -0.0126  -20.2272 C   0  0  0  0  0  0  0  0  0  0  0  0
   -7.3438   -0.0515  -18.9098 C   0  0  0  0  0  0  0  0  0  0  0  0
   -6.8591    0.2064  -17.8238 N   0  0  0  0  0  0  0  0  0  0  0  0
   -5.9358    0.8653  -18.2857 C   0  0  0  0  0  0  0  0  0  0  0  0
   -5.5821    1.1215  -19.4314 C   0  0  0  0  0  0  0  0  0  0  0  0
   -6.0917    0.7984  -20.5579 C   0  0  0  0  0  0  0  0  0  0  0  0
   -5.7636    0.9732  -21.5453 H   0  0  0  0  0  0  0  0  0  0  0  0
   -7.1529   -2.6253  -25.0246 H   0  0  0  0  0  0  0  0  0  0  0  0
  -11.2930    0.7106  -25.0239 H   0  0  0  0  0  0  0  0  0  0  0  0
  -13.0846    0.2548  -24.7382 H   0  0  0  0  0  0  0  0  0  0  0  0
  -12.5982   -2.5757  -23.2817 H   0  0  0  0  0  0  0  0  0  0  0  0
  -10.7728   -1.1287  -21.5467 H   0  0  0  0  0  0  0  0  0  0  0  0
   -7.6923   -1.1529  -21.8192 H   0  0  0  0  0  0  0  0  0  0  0  0
   -4.6876    1.7227  -19.5003 H   0  0  0  0  0  0  0  0  0  0  0  0
 20 21  2  0  0  0  0
 19 20  1  0  0  0  0
 19 21  1  0  0  0  0
 21 22  1  0  0  0  0
 18 19  2  0  0  0  0
 22 23  2  0  0  0  0
 18 23  1  0  0  0  0
 17 18  1  0  0  0  0
 23 24  1  0  0  0  0
 15 16  2  0  0  0  0
 15 17  1  0  0  0  0
 14 15  1  0  0  0  0
  8 14  2  3  0  0  0
 12 13  1  0  0  0  0
 11 12  1  0  0  0  0
  9 12  1  0  0  0  0
  7  8  1  0  0  0  0
  8  9  1  0  0  0  0
  6  7  3  0  0  0  0
  9 10  2  0  0  0  0
  5  6  1  0  0  0  0
  2  5  1  0  0  0  0
  2  3  2  0  0  0  0
  1  2  1  0  0  0  0
  2  4  2  0  0  0  0
  5 25  1  0  0  0  0
 10 26  1  0  0  0  0
 10 27  1  0  0  0  0
 12 28  1  0  0  0  0
 14 29  1  0  0  0  0
 17 30  1  0  0  0  0
 22 31  1  0  0  0  0
M  END
> <Chemgauss4>
-8.004922

$$$$
