stable:False satoms:9 tatoms:24 sratio:0.375
  -OEChem-08062413553D

 43 44  0     1  0  0  0  0  0999 V2000
   -6.2292   -5.2454  -26.3087 C   0  0  0  0  0  0  0  0  0  0  0  0
   -7.8794   -4.6455  -26.0597 S   0  0  0  0  0  0  0  0  0  0  0  0
   -8.7652   -5.7694  -25.9486 O   0  0  0  0  0  0  0  0  0  0  0  0
   -8.2077   -3.8009  -27.1566 O   0  0  0  0  0  0  0  0  0  0  0  0
   -7.8233   -3.8352  -24.6578 N   0  0  0  0  0  0  0  0  0  0  0  0
   -8.6915   -3.1140  -24.2579 C   0  0  0  0  0  0  0  0  0  0  0  0
   -9.2270   -2.1977  -23.7429 C   0  0  0  0  0  0  0  0  0  0  0  0
  -10.1433   -1.3455  -23.5443 C   0  0  1  0  0  0  0  0  0  0  0  0
  -10.7714   -0.2756  -24.6036 C   0  0  0  0  0  0  0  0  0  0  0  0
  -11.8304    0.0607  -24.6746 C   0  0  0  0  0  0  0  0  0  0  0  0
  -12.8961   -0.3569  -23.9094 C   0  0  0  0  0  0  0  0  0  0  0  0
  -12.6012   -1.3523  -23.0665 C   0  0  0  0  0  0  0  0  0  0  0  0
  -11.6414   -1.8400  -22.8714 C   0  0  0  0  0  0  0  0  0  0  0  0
   -9.5714   -0.7388  -22.6142 C   0  0  0  0  0  0  0  0  0  0  0  0
   -8.9826   -0.0980  -21.6328 C   0  0  0  0  0  0  0  0  0  0  0  0
   -9.5083    0.8704  -21.3068 O   0  0  0  0  0  0  0  0  0  0  0  0
   -7.8611   -0.7293  -21.2495 N   0  0  0  0  0  0  0  0  0  0  0  0
   -7.2068   -0.2176  -20.3031 C   0  0  0  0  0  0  0  0  0  0  0  0
   -7.3155   -0.0755  -19.0135 C   0  0  0  0  0  0  0  0  0  0  0  0
   -6.8588    0.2693  -17.8841 N   0  0  0  0  0  0  0  0  0  0  0  0
   -5.7971    0.7535  -18.3319 C   0  0  0  0  0  0  0  0  0  0  0  0
   -5.2838    0.8570  -19.4720 C   0  0  0  0  0  0  0  0  0  0  0  0
   -5.7832    0.4416  -20.6431 C   0  0  0  0  0  0  0  0  0  0  0  0
   -5.3066    0.4956  -21.8290 C   0  0  0  0  0  0  0  0  0  0  0  0
   -6.1828   -5.8126  -27.2501 H   0  0  0  0  0  0  0  0  0  0  0  0
   -5.5336   -4.3948  -26.3586 H   0  0  0  0  0  0  0  0  0  0  0  0
   -5.9473   -5.9009  -25.4716 H   0  0  0  0  0  0  0  0  0  0  0  0
   -7.0025   -3.2662  -24.7084 H   0  0  0  0  0  0  0  0  0  0  0  0
  -10.0828    0.1547  -25.3157 H   0  0  0  0  0  0  0  0  0  0  0  0
  -12.0467    0.8002  -25.4314 H   0  0  0  0  0  0  0  0  0  0  0  0
  -13.8811    0.0798  -23.9832 H   0  0  0  0  0  0  0  0  0  0  0  0
  -13.4343   -1.7312  -22.4932 H   0  0  0  0  0  0  0  0  0  0  0  0
  -11.5042   -1.7960  -21.7809 H   0  0  0  0  0  0  0  0  0  0  0  0
  -11.7736   -2.8869  -23.1823 H   0  0  0  0  0  0  0  0  0  0  0  0
   -8.9751   -0.1733  -23.3454 H   0  0  0  0  0  0  0  0  0  0  0  0
   -9.0364   -1.6595  -22.3384 H   0  0  0  0  0  0  0  0  0  0  0  0
   -7.5581   -1.5707  -21.6969 H   0  0  0  0  0  0  0  0  0  0  0  0
   -8.3080   -0.4402  -18.7934 H   0  0  0  0  0  0  0  0  0  0  0  0
   -5.1778    1.1821  -17.5578 H   0  0  0  0  0  0  0  0  0  0  0  0
   -4.3194    1.3413  -19.5143 H   0  0  0  0  0  0  0  0  0  0  0  0
   -4.7155   -0.4104  -22.0288 H   0  0  0  0  0  0  0  0  0  0  0  0
   -6.1320    0.5618  -22.5531 H   0  0  0  0  0  0  0  0  0  0  0  0
   -4.6624    1.3820  -21.9252 H   0  0  0  0  0  0  0  0  0  0  0  0
 20 21  2  0  0  0  0
 19 20  1  0  0  0  0
 21 22  1  0  0  0  0
 18 19  2  0  0  0  0
 22 23  2  0  0  0  0
 18 23  1  0  0  0  0
 17 18  1  0  0  0  0
 23 24  1  0  0  0  0
 15 16  2  0  0  0  0
 15 17  1  0  0  0  0
 14 15  1  0  0  0  0
  8 14  1  0  0  0  0
 12 13  1  0  0  0  0
  8 13  1  0  0  0  0
 11 12  2  0  0  0  0
  7  8  1  0  0  0  0
  8  9  1  0  0  0  0
 10 11  1  0  0  0  0
  6  7  3  0  0  0  0
  5  6  1  0  0  0  0
  9 10  2  0  0  0  0
  2  5  1  0  0  0  0
  2  3  2  0  0  0  0
  1  2  1  0  0  0  0
  2  4  2  0  0  0  0
  1 25  1  0  0  0  0
  1 26  1  0  0  0  0
  1 27  1  0  0  0  0
  5 28  1  0  0  0  0
  9 29  1  0  0  0  0
 10 30  1  0  0  0  0
 11 31  1  0  0  0  0
 12 32  1  0  0  0  0
 13 33  1  0  0  0  0
 13 34  1  0  0  0  0
 14 35  1  0  0  0  0
 14 36  1  0  0  0  0
 17 37  1  0  0  0  0
 19 38  1  0  0  0  0
 21 39  1  0  0  0  0
 22 40  1  0  0  0  0
 24 41  1  0  0  0  0
 24 42  1  0  0  0  0
 24 43  1  0  0  0  0
M  END
> <Chemgauss4>
-13.078999

$$$$
