MODEL 1
REMARK VINA RESULT:    -6.602      0.000      0.000
REMARK INTER + INTRA:         -11.015
REMARK INTER:                 -10.075
REMARK INTRA:                  -0.939
REMARK UNBOUND:                -0.939
REMARK  9 active torsions:
REMARK  status: ('A' for Active; 'I' for Inactive)
REMARK    1  A    between atoms: S_2  and  N_5 
REMARK    2  A    between atoms: N_5  and  C_7 
REMARK    3  A    between atoms: C_7  and  C_8 
REMARK    4  A    between atoms: C_9  and  C_10 
REMARK    5  A    between atoms: C_10  and  C_11 
REMARK    6  A    between atoms: C_11  and  C_12 
REMARK    7  A    between atoms: C_12  and  C_13 
REMARK    8  A    between atoms: C_15  and  C_16 
REMARK       I    between atoms: C_16  and  N_18 
REMARK    9  A    between atoms: N_18  and  C_20 
ROOT
HETATM    1  C   UNL     1       8.670  -2.610  23.253  1.00  0.00    -0.017 A 
HETATM    2  C   UNL     1       9.448  -1.580  23.368  1.00  0.00     0.082 A 
HETATM    3  C   UNL     1       9.034  -1.077  22.364  1.00  0.00     0.031 A 
ENDROOT
BRANCH   3   4
HETATM    4  C   UNL     1       8.525  -0.428  21.286  1.00  0.00     0.253 C 
HETATM    5  O   UNL     1       9.222   0.290  20.716  1.00  0.00    -0.268 OA
HETATM    6  N   UNL     1       7.265  -0.737  21.068  1.00  0.00    -0.321 N 
ATOM      7  HN  UNL     1       6.803  -1.425  21.663  1.00  0.00     0.169 HD
BRANCH   6   8
HETATM    8  C   UNL     1       6.618  -0.186  20.124  1.00  0.00     0.056 A 
HETATM    9  C   UNL     1       6.331  -0.564  18.860  1.00  0.00     0.117 A 
HETATM   10  N   UNL     1       5.778  -0.366  17.806  1.00  0.00    -0.373 N 
HETATM   11  C   UNL     1       5.310   0.847  18.057  1.00  0.00     0.088 A 
ATOM     12  HN  UNL     1       5.695  -0.953  16.976  1.00  0.00     0.164 HD
HETATM   13  C   UNL     1       5.415   1.506  19.138  1.00  0.00     0.026 A 
HETATM   14  C   UNL     1       5.986   1.179  20.281  1.00  0.00    -0.033 A 
HETATM   15  C   UNL     1       6.027   1.997  21.618  1.00  0.00     0.050 C 
ENDBRANCH   6   8
ENDBRANCH   3   4
BRANCH   1  16
HETATM   16  C   UNL     1       8.269  -3.704  23.657  1.00  0.00     0.108 C 
BRANCH  16  17
HETATM   17  N   UNL     1       7.483  -4.455  24.028  1.00  0.00    -0.295 N 
ATOM     18  HN  UNL     1       7.562  -4.763  24.997  1.00  0.00     0.177 HD
BRANCH  17  19
HETATM   19  S   UNL     1       6.240  -5.083  23.143  1.00  0.00     0.226 S 
HETATM   20  C   UNL     1       7.008  -5.937  21.756  1.00  0.00     0.186 C 
HETATM   21  O   UNL     1       5.526  -6.079  23.886  1.00  0.00    -0.206 OA
HETATM   22  O   UNL     1       5.397  -4.061  22.592  1.00  0.00    -0.206 OA
ENDBRANCH  17  19
ENDBRANCH  16  17
ENDBRANCH   1  16
BRANCH   2  23
HETATM   23  C   UNL     1       9.653  -0.574  24.552  1.00  0.00    -0.012 C 
BRANCH  23  24
HETATM   24  C   UNL     1      10.394   0.288  24.615  1.00  0.00    -0.003 C 
BRANCH  24  25
HETATM   25  C   UNL     1      11.538   0.499  23.851  1.00  0.00    -0.001 C 
BRANCH  25  26
HETATM   26  C   UNL     1      12.713  -0.037  24.419  1.00  0.00    -0.010 C 
HETATM   27  C   UNL     1      13.398  -0.769  24.038  1.00  0.00     0.011 C 
ENDBRANCH  25  26
ENDBRANCH  24  25
ENDBRANCH  23  24
ENDBRANCH   2  23
TORSDOF 9
ENDMDL
MODEL 2
REMARK VINA RESULT:    -6.485      2.883      6.447
REMARK INTER + INTRA:         -10.836
REMARK INTER:                  -9.678
REMARK INTRA:                  -1.158
REMARK UNBOUND:                -0.939
REMARK  9 active torsions:
REMARK  status: ('A' for Active; 'I' for Inactive)
REMARK    1  A    between atoms: S_2  and  N_5 
REMARK    2  A    between atoms: N_5  and  C_7 
REMARK    3  A    between atoms: C_7  and  C_8 
REMARK    4  A    between atoms: C_9  and  C_10 
REMARK    5  A    between atoms: C_10  and  C_11 
REMARK    6  A    between atoms: C_11  and  C_12 
REMARK    7  A    between atoms: C_12  and  C_13 
REMARK    8  A    between atoms: C_15  and  C_16 
REMARK       I    between atoms: C_16  and  N_18 
REMARK    9  A    between atoms: N_18  and  C_20 
ROOT
HETATM    1  C   UNL     1       6.685  -2.412  21.822  1.00  0.00    -0.017 A 
HETATM    2  C   UNL     1       6.923  -3.531  22.432  1.00  0.00     0.082 A 
HETATM    3  C   UNL     1       7.945  -3.127  22.905  1.00  0.00     0.031 A 
ENDROOT
BRANCH   3   4
HETATM    4  C   UNL     1       9.059  -2.679  23.537  1.00  0.00     0.253 C 
HETATM    5  O   UNL     1       9.190  -2.951  24.649  1.00  0.00    -0.268 OA
HETATM    6  N   UNL     1       9.834  -1.974  22.742  1.00  0.00    -0.321 N 
ATOM      7  HN  UNL     1       9.577  -1.855  21.762  1.00  0.00     0.169 HD
BRANCH   6   8
HETATM    8  C   UNL     1      10.900  -1.441  23.182  1.00  0.00     0.056 A 
HETATM    9  C   UNL     1      12.204  -1.782  23.101  1.00  0.00     0.117 A 
HETATM   10  N   UNL     1      13.366  -1.544  23.320  1.00  0.00    -0.373 N 
HETATM   11  C   UNL     1      13.205  -0.452  24.050  1.00  0.00     0.088 A 
ATOM     12  HN  UNL     1      14.213  -2.033  23.031  1.00  0.00     0.164 HD
HETATM   13  C   UNL     1      12.114   0.131  24.337  1.00  0.00     0.026 A 
HETATM   14  C   UNL     1      10.875  -0.164  23.992  1.00  0.00    -0.033 A 
HETATM   15  C   UNL     1       9.560   0.629  24.309  1.00  0.00     0.050 C 
ENDBRANCH   6   8
ENDBRANCH   3   4
BRANCH   1  16
HETATM   16  C   UNL     1       5.987  -1.723  21.075  1.00  0.00     0.108 C 
BRANCH  16  17
HETATM   17  N   UNL     1       5.787  -1.013  20.195  1.00  0.00    -0.295 N 
ATOM     18  HN  UNL     1       5.149  -1.345  19.471  1.00  0.00     0.177 HD
BRANCH  17  19
HETATM   19  S   UNL     1       6.433   0.491  19.989  1.00  0.00     0.226 S 
HETATM   20  C   UNL     1       5.122   1.495  19.271  1.00  0.00     0.186 C 
HETATM   21  O   UNL     1       6.759   1.092  21.249  1.00  0.00    -0.206 OA
HETATM   22  O   UNL     1       7.521   0.490  19.054  1.00  0.00    -0.206 OA
ENDBRANCH  17  19
ENDBRANCH  16  17
ENDBRANCH   1  16
BRANCH   2  23
HETATM   23  C   UNL     1       6.044  -4.368  23.424  1.00  0.00    -0.012 C 
BRANCH  23  24
HETATM   24  C   UNL     1       6.372  -5.230  24.091  1.00  0.00    -0.003 C 
BRANCH  24  25
HETATM   25  C   UNL     1       5.907  -5.562  25.360  1.00  0.00    -0.001 C 
BRANCH  25  26
HETATM   26  C   UNL     1       6.788  -5.208  26.404  1.00  0.00    -0.010 C 
HETATM   27  C   UNL     1       7.829  -5.428  26.539  1.00  0.00     0.011 C 
ENDBRANCH  25  26
ENDBRANCH  24  25
ENDBRANCH  23  24
ENDBRANCH   2  23
TORSDOF 9
ENDMDL
MODEL 3
REMARK VINA RESULT:    -6.379      6.129      8.335
REMARK INTER + INTRA:         -10.675
REMARK INTER:                  -9.334
REMARK INTRA:                  -1.341
REMARK UNBOUND:                -0.939
REMARK  9 active torsions:
REMARK  status: ('A' for Active; 'I' for Inactive)
REMARK    1  A    between atoms: S_2  and  N_5 
REMARK    2  A    between atoms: N_5  and  C_7 
REMARK    3  A    between atoms: C_7  and  C_8 
REMARK    4  A    between atoms: C_9  and  C_10 
REMARK    5  A    between atoms: C_10  and  C_11 
REMARK    6  A    between atoms: C_11  and  C_12 
REMARK    7  A    between atoms: C_12  and  C_13 
REMARK    8  A    between atoms: C_15  and  C_16 
REMARK       I    between atoms: C_16  and  N_18 
REMARK    9  A    between atoms: N_18  and  C_20 
ROOT
HETATM    1  C   UNL     1       4.704  -6.587  26.081  1.00  0.00    -0.017 A 
HETATM    2  C   UNL     1       5.322  -6.194  25.012  1.00  0.00     0.082 A 
HETATM    3  C   UNL     1       4.337  -6.277  24.337  1.00  0.00     0.031 A 
ENDROOT
BRANCH   3   4
HETATM    4  C   UNL     1       3.226  -6.265  23.558  1.00  0.00     0.253 C 
HETATM    5  O   UNL     1       3.019  -5.319  22.934  1.00  0.00    -0.268 OA
HETATM    6  N   UNL     1       2.539  -7.383  23.655  1.00  0.00    -0.321 N 
ATOM      7  HN  UNL     1       2.888  -8.142  24.240  1.00  0.00     0.169 HD
BRANCH   6   8
HETATM    8  C   UNL     1       1.445  -7.526  23.025  1.00  0.00     0.056 A 
HETATM    9  C   UNL     1       1.144  -7.975  21.788  1.00  0.00     0.117 A 
HETATM   10  N   UNL     1       0.330  -8.268  20.947  1.00  0.00    -0.373 N 
HETATM   11  C   UNL     1      -0.758  -7.865  21.583  1.00  0.00     0.088 A 
ATOM     12  HN  UNL     1       0.445  -8.695  20.028  1.00  0.00     0.164 HD
HETATM   13  C   UNL     1      -0.832  -7.378  22.754  1.00  0.00     0.026 A 
HETATM   14  C   UNL     1       0.115  -7.154  23.643  1.00  0.00    -0.033 A 
HETATM   15  C   UNL     1      -0.032  -6.617  25.109  1.00  0.00     0.050 C 
ENDBRANCH   6   8
ENDBRANCH   3   4
BRANCH   1  16
HETATM   16  C   UNL     1       4.709  -6.882  27.277  1.00  0.00     0.108 C 
BRANCH  16  17
HETATM   17  N   UNL     1       5.130  -7.363  28.232  1.00  0.00    -0.295 N 
ATOM     18  HN  UNL     1       4.668  -8.209  28.564  1.00  0.00     0.177 HD
BRANCH  17  19
HETATM   19  S   UNL     1       6.411  -6.815  29.116  1.00  0.00     0.226 S 
HETATM   20  C   UNL     1       5.716  -5.697  30.346  1.00  0.00     0.186 C 
HETATM   21  O   UNL     1       7.032  -7.881  29.845  1.00  0.00    -0.206 OA
HETATM   22  O   UNL     1       7.328  -6.048  28.324  1.00  0.00    -0.206 OA
ENDBRANCH  17  19
ENDBRANCH  16  17
ENDBRANCH   1  16
BRANCH   2  23
HETATM   23  C   UNL     1       6.182  -4.913  24.735  1.00  0.00    -0.012 C 
BRANCH  23  24
HETATM   24  C   UNL     1       6.715  -4.624  23.771  1.00  0.00    -0.003 C 
BRANCH  24  25
HETATM   25  C   UNL     1       7.463  -5.437  22.924  1.00  0.00    -0.001 C 
BRANCH  25  26
HETATM   26  C   UNL     1       7.002  -5.452  21.591  1.00  0.00    -0.010 C 
HETATM   27  C   UNL     1       6.110  -5.872  21.168  1.00  0.00     0.011 C 
ENDBRANCH  25  26
ENDBRANCH  24  25
ENDBRANCH  23  24
ENDBRANCH   2  23
TORSDOF 9
ENDMDL
MODEL 4
REMARK VINA RESULT:    -6.362     14.136     16.042
REMARK INTER + INTRA:         -10.648
REMARK INTER:                  -9.140
REMARK INTRA:                  -1.508
REMARK UNBOUND:                -0.939
REMARK  9 active torsions:
REMARK  status: ('A' for Active; 'I' for Inactive)
REMARK    1  A    between atoms: S_2  and  N_5 
REMARK    2  A    between atoms: N_5  and  C_7 
REMARK    3  A    between atoms: C_7  and  C_8 
REMARK    4  A    between atoms: C_9  and  C_10 
REMARK    5  A    between atoms: C_10  and  C_11 
REMARK    6  A    between atoms: C_11  and  C_12 
REMARK    7  A    between atoms: C_12  and  C_13 
REMARK    8  A    between atoms: C_15  and  C_16 
REMARK       I    between atoms: C_16  and  N_18 
REMARK    9  A    between atoms: N_18  and  C_20 
ROOT
HETATM    1  C   UNL     1      23.717  -2.938  23.905  1.00  0.00    -0.017 A 
HETATM    2  C   UNL     1      24.124  -1.733  23.652  1.00  0.00     0.082 A 
HETATM    3  C   UNL     1      23.740  -1.774  22.520  1.00  0.00     0.031 A 
ENDROOT
BRANCH   3   4
HETATM    4  C   UNL     1      23.234  -1.743  21.261  1.00  0.00     0.253 C 
HETATM    5  O   UNL     1      22.095  -1.858  21.138  1.00  0.00    -0.268 OA
HETATM    6  N   UNL     1      24.172  -1.584  20.352  1.00  0.00    -0.321 N 
ATOM      7  HN  UNL     1      25.142  -1.467  20.643  1.00  0.00     0.169 HD
BRANCH   6   8
HETATM    8  C   UNL     1      23.879  -1.576  19.116  1.00  0.00     0.056 A 
HETATM    9  C   UNL     1      23.375  -0.631  18.293  1.00  0.00     0.117 A 
HETATM   10  N   UNL     1      23.041  -0.268  17.192  1.00  0.00    -0.373 N 
HETATM   11  C   UNL     1      23.209  -1.415  16.552  1.00  0.00     0.088 A 
ATOM     12  HN  UNL     1      22.725   0.642  16.857  1.00  0.00     0.164 HD
HETATM   13  C   UNL     1      23.650  -2.507  17.027  1.00  0.00     0.026 A 
HETATM   14  C   UNL     1      24.064  -2.799  18.245  1.00  0.00    -0.033 A 
HETATM   15  C   UNL     1      24.672  -4.145  18.770  1.00  0.00     0.050 C 
ENDBRANCH   6   8
ENDBRANCH   3   4
BRANCH   1  16
HETATM   16  C   UNL     1      23.604  -3.894  24.674  1.00  0.00     0.108 C 
BRANCH  16  17
HETATM   17  N   UNL     1      23.410  -4.992  24.953  1.00  0.00    -0.295 N 
ATOM     18  HN  UNL     1      22.437  -5.295  24.982  1.00  0.00     0.177 HD
BRANCH  17  19
HETATM   19  S   UNL     1      24.556  -6.123  25.313  1.00  0.00     0.226 S 
HETATM   20  C   UNL     1      25.271  -6.616  23.735  1.00  0.00     0.186 C 
HETATM   21  O   UNL     1      25.624  -5.553  26.080  1.00  0.00    -0.206 OA
HETATM   22  O   UNL     1      23.988  -7.301  25.903  1.00  0.00    -0.206 OA
ENDBRANCH  17  19
ENDBRANCH  16  17
ENDBRANCH   1  16
BRANCH   2  23
HETATM   23  C   UNL     1      23.832  -0.377  24.381  1.00  0.00    -0.012 C 
BRANCH  23  24
HETATM   24  C   UNL     1      22.995  -0.146  25.117  1.00  0.00    -0.003 C 
BRANCH  24  25
HETATM   25  C   UNL     1      21.696   0.273  24.840  1.00  0.00    -0.001 C 
BRANCH  25  26
HETATM   26  C   UNL     1      20.780  -0.784  24.658  1.00  0.00    -0.010 C 
HETATM   27  C   UNL     1      20.557  -1.626  25.285  1.00  0.00     0.011 C 
ENDBRANCH  25  26
ENDBRANCH  24  25
ENDBRANCH  23  24
ENDBRANCH   2  23
TORSDOF 9
ENDMDL
MODEL 5
REMARK VINA RESULT:    -6.348      3.338      7.102
REMARK INTER + INTRA:         -10.627
REMARK INTER:                  -9.450
REMARK INTRA:                  -1.177
REMARK UNBOUND:                -0.939
REMARK  9 active torsions:
REMARK  status: ('A' for Active; 'I' for Inactive)
REMARK    1  A    between atoms: S_2  and  N_5 
REMARK    2  A    between atoms: N_5  and  C_7 
REMARK    3  A    between atoms: C_7  and  C_8 
REMARK    4  A    between atoms: C_9  and  C_10 
REMARK    5  A    between atoms: C_10  and  C_11 
REMARK    6  A    between atoms: C_11  and  C_12 
REMARK    7  A    between atoms: C_12  and  C_13 
REMARK    8  A    between atoms: C_15  and  C_16 
REMARK       I    between atoms: C_16  and  N_18 
REMARK    9  A    between atoms: N_18  and  C_20 
ROOT
HETATM    1  C   UNL     1       9.420  -2.252  22.773  1.00  0.00    -0.017 A 
HETATM    2  C   UNL     1       8.271  -2.211  22.175  1.00  0.00     0.082 A 
HETATM    3  C   UNL     1       7.894  -3.221  22.695  1.00  0.00     0.031 A 
ENDROOT
BRANCH   3   4
HETATM    4  C   UNL     1       7.393  -4.308  23.333  1.00  0.00     0.253 C 
HETATM    5  O   UNL     1       7.661  -5.347  22.914  1.00  0.00    -0.268 OA
HETATM    6  N   UNL     1       6.647  -3.979  24.366  1.00  0.00    -0.321 N 
ATOM      7  HN  UNL     1       6.538  -2.996  24.617  1.00  0.00     0.169 HD
BRANCH   6   8
HETATM    8  C   UNL     1       6.063  -4.873  25.053  1.00  0.00     0.056 A 
HETATM    9  C   UNL     1       6.420  -5.574  26.150  1.00  0.00     0.117 A 
HETATM   10  N   UNL     1       6.159  -6.375  27.015  1.00  0.00    -0.373 N 
HETATM   11  C   UNL     1       4.972  -6.757  26.572  1.00  0.00     0.088 A 
ATOM     12  HN  UNL     1       6.691  -6.667  27.835  1.00  0.00     0.164 HD
HETATM   13  C   UNL     1       4.347  -6.316  25.559  1.00  0.00     0.026 A 
HETATM   14  C   UNL     1       4.681  -5.376  24.696  1.00  0.00    -0.033 A 
HETATM   15  C   UNL     1       3.843  -4.810  23.499  1.00  0.00     0.050 C 
ENDBRANCH   6   8
ENDBRANCH   3   4
BRANCH   1  16
HETATM   16  C   UNL     1      10.543  -1.786  22.975  1.00  0.00     0.108 C 
BRANCH  16  17
HETATM   17  N   UNL     1      11.334  -0.955  23.029  1.00  0.00    -0.295 N 
ATOM     18  HN  UNL     1      11.947  -0.849  22.221  1.00  0.00     0.177 HD
BRANCH  17  19
HETATM   19  S   UNL     1      11.572   0.084  24.289  1.00  0.00     0.226 S 
HETATM   20  C   UNL     1      11.296   1.735  23.624  1.00  0.00     0.186 C 
HETATM   21  O   UNL     1      10.588  -0.109  25.313  1.00  0.00    -0.206 OA
HETATM   22  O   UNL     1      12.922   0.047  24.773  1.00  0.00    -0.206 OA
ENDBRANCH  17  19
ENDBRANCH  16  17
ENDBRANCH   1  16
BRANCH   2  23
HETATM   23  C   UNL     1       7.187  -1.081  22.110  1.00  0.00    -0.012 C 
BRANCH  23  24
HETATM   24  C   UNL     1       6.996  -0.344  21.263  1.00  0.00    -0.003 C 
BRANCH  24  25
HETATM   25  C   UNL     1       7.847   0.008  20.219  1.00  0.00    -0.001 C 
BRANCH  25  26
HETATM   26  C   UNL     1       7.194   0.186  18.982  1.00  0.00    -0.010 C 
HETATM   27  C   UNL     1       6.155   0.337  18.760  1.00  0.00     0.011 C 
ENDBRANCH  25  26
ENDBRANCH  24  25
ENDBRANCH  23  24
ENDBRANCH   2  23
TORSDOF 9
ENDMDL
MODEL 6
REMARK VINA RESULT:    -6.343      3.031      6.437
REMARK INTER + INTRA:         -10.620
REMARK INTER:                  -9.587
REMARK INTRA:                  -1.033
REMARK UNBOUND:                -0.939
REMARK  9 active torsions:
REMARK  status: ('A' for Active; 'I' for Inactive)
REMARK    1  A    between atoms: S_2  and  N_5 
REMARK    2  A    between atoms: N_5  and  C_7 
REMARK    3  A    between atoms: C_7  and  C_8 
REMARK    4  A    between atoms: C_9  and  C_10 
REMARK    5  A    between atoms: C_10  and  C_11 
REMARK    6  A    between atoms: C_11  and  C_12 
REMARK    7  A    between atoms: C_12  and  C_13 
REMARK    8  A    between atoms: C_15  and  C_16 
REMARK       I    between atoms: C_16  and  N_18 
REMARK    9  A    between atoms: N_18  and  C_20 
ROOT
HETATM    1  C   UNL     1       7.389  -1.746  21.969  1.00  0.00    -0.017 A 
HETATM    2  C   UNL     1       8.342  -1.837  22.843  1.00  0.00     0.082 A 
HETATM    3  C   UNL     1       7.876  -2.822  23.340  1.00  0.00     0.031 A 
ENDROOT
BRANCH   3   4
HETATM    4  C   UNL     1       7.435  -3.990  23.870  1.00  0.00     0.253 C 
HETATM    5  O   UNL     1       7.885  -4.968  23.461  1.00  0.00    -0.268 OA
HETATM    6  N   UNL     1       6.523  -3.802  24.799  1.00  0.00    -0.321 N 
ATOM      7  HN  UNL     1       6.258  -2.853  25.062  1.00  0.00     0.169 HD
BRANCH   6   8
HETATM    8  C   UNL     1       5.969  -4.792  25.372  1.00  0.00     0.056 A 
HETATM    9  C   UNL     1       6.306  -5.547  26.439  1.00  0.00     0.117 A 
HETATM   10  N   UNL     1       6.054  -6.433  27.219  1.00  0.00    -0.373 N 
HETATM   11  C   UNL     1       4.938  -6.871  26.660  1.00  0.00     0.088 A 
ATOM     12  HN  UNL     1       6.550  -6.746  28.054  1.00  0.00     0.164 HD
HETATM   13  C   UNL     1       4.350  -6.401  25.637  1.00  0.00     0.026 A 
HETATM   14  C   UNL     1       4.664  -5.372  24.874  1.00  0.00    -0.033 A 
HETATM   15  C   UNL     1       3.866  -4.780  23.661  1.00  0.00     0.050 C 
ENDBRANCH   6   8
ENDBRANCH   3   4
BRANCH   1  16
HETATM   16  C   UNL     1       6.846  -1.163  21.029  1.00  0.00     0.108 C 
BRANCH  16  17
HETATM   17  N   UNL     1       6.001  -0.588  20.505  1.00  0.00    -0.295 N 
ATOM     18  HN  UNL     1       5.113  -0.520  21.003  1.00  0.00     0.177 HD
BRANCH  17  19
HETATM   19  S   UNL     1       6.085   0.138  19.026  1.00  0.00     0.226 S 
HETATM   20  C   UNL     1       4.921   1.511  19.086  1.00  0.00     0.186 C 
HETATM   21  O   UNL     1       7.379   0.714  18.804  1.00  0.00    -0.206 OA
HETATM   22  O   UNL     1       5.654  -0.732  17.970  1.00  0.00    -0.206 OA
ENDBRANCH  17  19
ENDBRANCH  16  17
ENDBRANCH   1  16
BRANCH   2  23
HETATM   23  C   UNL     1       9.898  -1.885  22.664  1.00  0.00    -0.012 C 
BRANCH  23  24
HETATM   24  C   UNL     1      10.697  -1.740  23.462  1.00  0.00    -0.003 C 
BRANCH  24  25
HETATM   25  C   UNL     1      11.904  -1.055  23.357  1.00  0.00    -0.001 C 
BRANCH  25  26
HETATM   26  C   UNL     1      11.987   0.089  24.178  1.00  0.00    -0.010 C 
HETATM   27  C   UNL     1      11.329   0.440  24.950  1.00  0.00     0.011 C 
ENDBRANCH  25  26
ENDBRANCH  24  25
ENDBRANCH  23  24
ENDBRANCH   2  23
TORSDOF 9
ENDMDL
MODEL 7
REMARK VINA RESULT:    -6.175      4.394      6.498
REMARK INTER + INTRA:         -10.363
REMARK INTER:                  -9.332
REMARK INTRA:                  -1.031
REMARK UNBOUND:                -0.939
REMARK  9 active torsions:
REMARK  status: ('A' for Active; 'I' for Inactive)
REMARK    1  A    between atoms: S_2  and  N_5 
REMARK    2  A    between atoms: N_5  and  C_7 
REMARK    3  A    between atoms: C_7  and  C_8 
REMARK    4  A    between atoms: C_9  and  C_10 
REMARK    5  A    between atoms: C_10  and  C_11 
REMARK    6  A    between atoms: C_11  and  C_12 
REMARK    7  A    between atoms: C_12  and  C_13 
REMARK    8  A    between atoms: C_15  and  C_16 
REMARK       I    between atoms: C_16  and  N_18 
REMARK    9  A    between atoms: N_18  and  C_20 
ROOT
HETATM    1  C   UNL     1       7.481  -4.441  26.098  1.00  0.00    -0.017 A 
HETATM    2  C   UNL     1       7.422  -4.072  24.857  1.00  0.00     0.082 A 
HETATM    3  C   UNL     1       8.007  -3.049  25.069  1.00  0.00     0.031 A 
ENDROOT
BRANCH   3   4
HETATM    4  C   UNL     1       8.749  -1.927  25.247  1.00  0.00     0.253 C 
HETATM    5  O   UNL     1       8.989  -1.609  26.328  1.00  0.00    -0.268 OA
HETATM    6  N   UNL     1       9.079  -1.362  24.106  1.00  0.00    -0.321 N 
ATOM      7  HN  UNL     1       8.804  -1.801  23.227  1.00  0.00     0.169 HD
BRANCH   6   8
HETATM    8  C   UNL     1       9.738  -0.276  24.088  1.00  0.00     0.056 A 
HETATM    9  C   UNL     1       9.421   1.001  24.391  1.00  0.00     0.117 A 
HETATM   10  N   UNL     1       9.738   2.157  24.528  1.00  0.00    -0.373 N 
HETATM   11  C   UNL     1      10.984   2.068  24.088  1.00  0.00     0.088 A 
ATOM     12  HN  UNL     1       9.210   2.956  24.876  1.00  0.00     0.164 HD
HETATM   13  C   UNL     1      11.595   1.023  23.707  1.00  0.00     0.026 A 
HETATM   14  C   UNL     1      11.187  -0.231  23.655  1.00  0.00    -0.033 A 
HETATM   15  C   UNL     1      12.003  -1.505  23.247  1.00  0.00     0.050 C 
ENDBRANCH   6   8
ENDBRANCH   3   4
BRANCH   1  16
HETATM   16  C   UNL     1       7.214  -5.245  26.993  1.00  0.00     0.108 C 
BRANCH  16  17
HETATM   17  N   UNL     1       7.453  -6.035  27.792  1.00  0.00    -0.295 N 
ATOM     18  HN  UNL     1       8.347  -6.518  27.708  1.00  0.00     0.177 HD
BRANCH  17  19
HETATM   19  S   UNL     1       6.488  -6.462  29.060  1.00  0.00     0.226 S 
HETATM   20  C   UNL     1       4.841  -6.689  28.370  1.00  0.00     0.186 C 
HETATM   21  O   UNL     1       6.877  -7.730  29.604  1.00  0.00    -0.206 OA
HETATM   22  O   UNL     1       6.392  -5.420  30.042  1.00  0.00    -0.206 OA
ENDBRANCH  17  19
ENDBRANCH  16  17
ENDBRANCH   1  16
BRANCH   2  23
HETATM   23  C   UNL     1       7.867  -4.804  23.545  1.00  0.00    -0.012 C 
BRANCH  23  24
HETATM   24  C   UNL     1       7.211  -5.361  22.799  1.00  0.00    -0.003 C 
BRANCH  24  25
HETATM   25  C   UNL     1       6.009  -6.022  23.035  1.00  0.00    -0.001 C 
BRANCH  25  26
HETATM   26  C   UNL     1       4.865  -5.259  22.725  1.00  0.00    -0.010 C 
HETATM   27  C   UNL     1       3.966  -5.093  23.287  1.00  0.00     0.011 C 
ENDBRANCH  25  26
ENDBRANCH  24  25
ENDBRANCH  23  24
ENDBRANCH   2  23
TORSDOF 9
ENDMDL
MODEL 8
REMARK VINA RESULT:    -6.114      4.309      8.031
REMARK INTER + INTRA:         -10.270
REMARK INTER:                  -8.908
REMARK INTRA:                  -1.362
REMARK UNBOUND:                -0.939
REMARK  9 active torsions:
REMARK  status: ('A' for Active; 'I' for Inactive)
REMARK    1  A    between atoms: S_2  and  N_5 
REMARK    2  A    between atoms: N_5  and  C_7 
REMARK    3  A    between atoms: C_7  and  C_8 
REMARK    4  A    between atoms: C_9  and  C_10 
REMARK    5  A    between atoms: C_10  and  C_11 
REMARK    6  A    between atoms: C_11  and  C_12 
REMARK    7  A    between atoms: C_12  and  C_13 
REMARK    8  A    between atoms: C_15  and  C_16 
REMARK       I    between atoms: C_16  and  N_18 
REMARK    9  A    between atoms: N_18  and  C_20 
ROOT
HETATM    1  C   UNL     1       9.203  -1.592  25.167  1.00  0.00    -0.017 A 
HETATM    2  C   UNL     1       9.064  -2.613  24.381  1.00  0.00     0.082 A 
HETATM    3  C   UNL     1       8.701  -3.327  25.270  1.00  0.00     0.031 A 
ENDROOT
BRANCH   3   4
HETATM    4  C   UNL     1       8.196  -4.143  26.229  1.00  0.00     0.253 C 
HETATM    5  O   UNL     1       8.932  -4.593  26.992  1.00  0.00    -0.268 OA
HETATM    6  N   UNL     1       6.894  -4.295  26.118  1.00  0.00    -0.321 N 
ATOM      7  HN  UNL     1       6.387  -3.792  25.389  1.00  0.00     0.169 HD
BRANCH   6   8
HETATM    8  C   UNL     1       6.262  -5.063  26.909  1.00  0.00     0.056 A 
HETATM    9  C   UNL     1       6.194  -5.147  28.254  1.00  0.00     0.117 A 
HETATM   10  N   UNL     1       5.734  -5.644  29.253  1.00  0.00    -0.373 N 
HETATM   11  C   UNL     1       5.018  -6.598  28.681  1.00  0.00     0.088 A 
ATOM     12  HN  UNL     1       5.859  -5.402  30.236  1.00  0.00     0.164 HD
HETATM   13  C   UNL     1       4.874  -6.815  27.438  1.00  0.00     0.026 A 
HETATM   14  C   UNL     1       5.366  -6.169  26.398  1.00  0.00    -0.033 A 
HETATM   15  C   UNL     1       5.101  -6.428  24.875  1.00  0.00     0.050 C 
ENDBRANCH   6   8
ENDBRANCH   3   4
BRANCH   1  16
HETATM   16  C   UNL     1       9.520  -0.416  25.355  1.00  0.00     0.108 C 
BRANCH  16  17
HETATM   17  N   UNL     1      10.205   0.504  25.289  1.00  0.00    -0.295 N 
ATOM     18  HN  UNL     1      10.101   1.210  26.018  1.00  0.00     0.177 HD
BRANCH  17  19
HETATM   19  S   UNL     1      11.340   0.793  24.127  1.00  0.00     0.226 S 
HETATM   20  C   UNL     1      11.333   2.575  23.864  1.00  0.00     0.186 C 
HETATM   21  O   UNL     1      12.654   0.458  24.591  1.00  0.00    -0.206 OA
HETATM   22  O   UNL     1      11.000   0.183  22.874  1.00  0.00    -0.206 OA
ENDBRANCH  17  19
ENDBRANCH  16  17
ENDBRANCH   1  16
BRANCH   2  23
HETATM   23  C   UNL     1       8.251  -2.781  23.051  1.00  0.00    -0.012 C 
BRANCH  23  24
HETATM   24  C   UNL     1       7.121  -2.816  22.924  1.00  0.00    -0.003 C 
BRANCH  24  25
HETATM   25  C   UNL     1       6.336  -3.877  22.480  1.00  0.00    -0.001 C 
BRANCH  25  26
HETATM   26  C   UNL     1       7.074  -5.025  22.123  1.00  0.00    -0.010 C 
HETATM   27  C   UNL     1       6.781  -5.896  21.569  1.00  0.00     0.011 C 
ENDBRANCH  25  26
ENDBRANCH  24  25
ENDBRANCH  23  24
ENDBRANCH   2  23
TORSDOF 9
ENDMDL
MODEL 9
REMARK VINA RESULT:    -6.094      2.746      6.064
REMARK INTER + INTRA:         -10.239
REMARK INTER:                  -9.086
REMARK INTRA:                  -1.153
REMARK UNBOUND:                -0.939
REMARK  9 active torsions:
REMARK  status: ('A' for Active; 'I' for Inactive)
REMARK    1  A    between atoms: S_2  and  N_5 
REMARK    2  A    between atoms: N_5  and  C_7 
REMARK    3  A    between atoms: C_7  and  C_8 
REMARK    4  A    between atoms: C_9  and  C_10 
REMARK    5  A    between atoms: C_10  and  C_11 
REMARK    6  A    between atoms: C_11  and  C_12 
REMARK    7  A    between atoms: C_12  and  C_13 
REMARK    8  A    between atoms: C_15  and  C_16 
REMARK       I    between atoms: C_16  and  N_18 
REMARK    9  A    between atoms: N_18  and  C_20 
ROOT
HETATM    1  C   UNL     1       8.581  -0.442  21.341  1.00  0.00    -0.017 A 
HETATM    2  C   UNL     1       9.301  -0.338  22.414  1.00  0.00     0.082 A 
HETATM    3  C   UNL     1       8.733  -1.240  22.958  1.00  0.00     0.031 A 
ENDROOT
BRANCH   3   4
HETATM    4  C   UNL     1       8.182  -2.317  23.573  1.00  0.00     0.253 C 
HETATM    5  O   UNL     1       7.429  -2.949  22.972  1.00  0.00    -0.268 OA
HETATM    6  N   UNL     1       8.614  -2.461  24.807  1.00  0.00    -0.321 N 
ATOM      7  HN  UNL     1       9.315  -1.818  25.175  1.00  0.00     0.169 HD
BRANCH   6   8
HETATM    8  C   UNL     1       8.168  -3.395  25.543  1.00  0.00     0.056 A 
HETATM    9  C   UNL     1       8.566  -4.666  25.764  1.00  0.00     0.117 A 
HETATM   10  N   UNL     1       8.448  -5.716  26.347  1.00  0.00    -0.373 N 
HETATM   11  C   UNL     1       7.342  -5.440  27.020  1.00  0.00     0.088 A 
ATOM     12  HN  UNL     1       9.024  -6.557  26.327  1.00  0.00     0.164 HD
HETATM   13  C   UNL     1       6.696  -4.347  27.029  1.00  0.00     0.026 A 
HETATM   14  C   UNL     1       6.939  -3.210  26.406  1.00  0.00    -0.033 A 
HETATM   15  C   UNL     1       6.153  -1.858  26.505  1.00  0.00     0.050 C 
ENDBRANCH   6   8
ENDBRANCH   3   4
BRANCH   1  16
HETATM   16  C   UNL     1       8.274  -0.056  20.212  1.00  0.00     0.108 C 
BRANCH  16  17
HETATM   17  N   UNL     1       7.658  -0.051  19.242  1.00  0.00    -0.295 N 
ATOM     18  HN  UNL     1       8.162   0.147  18.378  1.00  0.00     0.177 HD
BRANCH  17  19
HETATM   19  S   UNL     1       6.037  -0.333  19.115  1.00  0.00     0.226 S 
HETATM   20  C   UNL     1       5.230   1.153  19.734  1.00  0.00     0.186 C 
HETATM   21  O   UNL     1       5.640  -0.468  17.744  1.00  0.00    -0.206 OA
HETATM   22  O   UNL     1       5.610  -1.420  19.947  1.00  0.00    -0.206 OA
ENDBRANCH  17  19
ENDBRANCH  16  17
ENDBRANCH   1  16
BRANCH   2  23
HETATM   23  C   UNL     1      10.856  -0.347  22.612  1.00  0.00    -0.012 C 
BRANCH  23  24
HETATM   24  C   UNL     1      11.450   0.057  23.495  1.00  0.00    -0.003 C 
BRANCH  24  25
HETATM   25  C   UNL     1      11.108   1.092  24.361  1.00  0.00    -0.001 C 
BRANCH  25  26
HETATM   26  C   UNL     1      11.406   2.378  23.863  1.00  0.00    -0.010 C 
HETATM   27  C   UNL     1      10.759   3.135  23.464  1.00  0.00     0.011 C 
ENDBRANCH  25  26
ENDBRANCH  24  25
ENDBRANCH  23  24
ENDBRANCH   2  23
TORSDOF 9
ENDMDL
