stable:False satoms:9 tatoms:24 sratio:0.375
  -OEChem-07092417503D

 24 25  0     1  0  0  0  0  0999 V2000
    6.5595   -4.8827   26.5049 C   0  0  0  0  0  0  0  0  0  0  0  0
    8.2176   -4.2916   26.1281 S   0  0  0  0  0  0  0  0  0  0  0  0
    9.0511   -5.4552   26.0401 O   0  0  0  0  0  0  0  0  0  0  0  0
    8.5932   -3.3937   27.1821 O   0  0  0  0  0  0  0  0  0  0  0  0
    8.1030   -3.5282   24.6696 N   0  0  0  0  0  0  0  0  0  0  0  0
    8.9252   -2.9056   24.1628 C   0  0  0  0  0  0  0  0  0  0  0  0
    9.3746   -1.9509   23.5267 C   0  0  0  0  0  0  0  0  0  0  0  0
   10.3134   -1.0848   23.3019 C   0  0  2  0  0  0  0  0  0  0  0  0
   10.9916   -0.0368   24.2486 C   0  0  0  0  0  0  0  0  0  0  0  0
   12.0820    0.2911   24.2601 C   0  0  0  0  0  0  0  0  0  0  0  0
   13.1330   -0.1868   23.4815 C   0  0  0  0  0  0  0  0  0  0  0  0
   12.7793   -1.2604   22.6384 C   0  0  0  0  0  0  0  0  0  0  0  0
   11.8297   -1.7335   22.4774 C   0  0  0  0  0  0  0  0  0  0  0  0
    9.7303   -0.6020   22.3747 C   0  0  2  0  0  0  0  0  0  0  0  0
    9.0620    0.0359   21.3810 C   0  0  0  0  0  0  0  0  0  0  0  0
    9.5228    1.0047   20.9617 O   0  0  0  0  0  0  0  0  0  0  0  0
    7.9492   -0.5825   21.0515 N   0  0  0  0  0  0  0  0  0  0  0  0
    7.1773   -0.0988   20.1674 C   0  0  0  0  0  0  0  0  0  0  0  0
    7.2562   -0.0105   18.8217 C   0  0  0  0  0  0  0  0  0  0  0  0
    6.7718    0.2963   17.7599 N   0  0  0  0  0  0  0  0  0  0  0  0
    5.6740    0.8821   18.2110 C   0  0  0  0  0  0  0  0  0  0  0  0
    5.2983    0.9915   19.4187 C   0  0  0  0  0  0  0  0  0  0  0  0
    5.8643    0.5593   20.5285 C   0  0  0  0  0  0  0  0  0  0  0  0
    5.3248    0.6528   21.9982 C   0  0  0  0  0  0  0  0  0  0  0  0
 20 21  2  0  0  0  0
 19 20  1  0  0  0  0
 21 22  1  0  0  0  0
 18 19  2  0  0  0  0
 22 23  2  0  0  0  0
 18 23  1  0  0  0  0
 17 18  1  0  0  0  0
 23 24  1  0  0  0  0
 15 16  2  0  0  0  0
 15 17  1  0  0  0  0
 14 15  1  0  0  0  0
  8 14  1  0  0  0  0
  7 14  1  0  0  0  0
 12 13  2  0  0  0  0
 11 12  1  0  0  0  0
  7  8  1  0  0  0  0
  8  9  1  0  0  0  0
 10 11  1  0  0  0  0
  6  7  2  3  0  0  0
  5  6  1  0  0  0  0
  9 10  2  0  0  0  0
  2  5  1  0  0  0  0
  2  3  2  0  0  0  0
  1  2  1  0  0  0  0
  2  4  2  0  0  0  0
M  END
> <Shapegauss>
-285.883759

$$$$
