REMARK  7 active torsions:
REMARK  status: ('A' for Active; 'I' for Inactive)
REMARK    1  A    between atoms: C_2  and  C_3 
REMARK    2  A    between atoms: C_6  and  C_9 
REMARK    3  A    between atoms: O_7  and  C_10 
REMARK    4  A    between atoms: O_7  and  C_8 
REMARK    5  A    between atoms: C_8  and  C_9 
REMARK    6  A    between atoms: C_11  and  N_13 
REMARK    7  A    between atoms: N_13  and  C_15 
ROOT
HETATM    1  C   UNL     1      10.085   0.045  22.187  1.00  0.00     0.241 A 
HETATM    2  C   UNL     1       9.079   0.009  21.396  1.00  0.00     0.211 A 
HETATM    3  O   UNL     1       9.812   0.941  21.206  1.00  0.00    -0.262 OA
ENDROOT
BRANCH   2   4
HETATM    4  N   UNL     1       7.881  -0.579  20.934  1.00  0.00    -0.317 N 
ATOM      5  HN  UNL     1       7.593  -1.479  21.319  1.00  0.00     0.169 HD
BRANCH   4   6
HETATM    6  C   UNL     1       7.128  -0.009  20.030  1.00  0.00     0.137 A 
HETATM    7  N   UNL     1       7.324  -0.061  18.687  1.00  0.00    -0.283 N 
HETATM    8  N   UNL     1       6.617   0.461  17.743  1.00  0.00    -0.295 N 
ATOM      9  HN  UNL     1       8.144  -0.586  18.383  1.00  0.00     0.188 HD
HETATM   10  C   UNL     1       5.718   0.863  18.373  1.00  0.00     0.197 A 
ATOM     11  HN  UNL     1       6.791   0.509  16.739  1.00  0.00     0.187 HD
HETATM   12  N   UNL     1       5.145   1.027  19.424  1.00  0.00    -0.357 N 
HETATM   13  C   UNL     1       5.881   0.631  20.392  1.00  0.00     0.138 A 
ATOM     14  HN  UNL     1       4.211   1.423  19.525  1.00  0.00     0.166 HD
ENDBRANCH   4   6
ENDBRANCH   2   4
BRANCH   1  15
HETATM   15  O   UNL     1      11.004   0.144  23.131  1.00  0.00    -0.323 OA
BRANCH  15  16
HETATM   16  C   UNL     1      12.049  -0.740  23.399  1.00  0.00     0.208 C 
BRANCH  16  17
HETATM   17  C   UNL     1      11.329  -1.828  23.607  1.00  0.00     0.031 C 
BRANCH  17  18
HETATM   18  C   UNL     1      10.159  -1.720  23.627  1.00  0.00     0.057 A 
HETATM   19  C   UNL     1       8.938  -2.751  24.404  1.00  0.00     0.055 A 
HETATM   20  N   UNL     1       8.921  -1.723  23.558  1.00  0.00    -0.353 N 
ATOM     21  HN  UNL     1       8.208  -1.180  23.071  1.00  0.00     0.166 HD
BRANCH  19  22
HETATM   22  C   UNL     1       8.514  -3.578  25.078  1.00  0.00     0.001 C 
HETATM   23  C   UNL     1       8.298  -4.330  26.180  1.00  0.00     0.038 C 
ENDBRANCH  19  22
ENDBRANCH  17  18
ENDBRANCH  16  17
ENDBRANCH  15  16
ENDBRANCH   1  15
TORSDOF 7
