MODEL 1
REMARK VINA RESULT:    -5.820      0.000      0.000
REMARK INTER + INTRA:          -8.820
REMARK INTER:                  -8.202
REMARK INTRA:                  -0.617
REMARK UNBOUND:                -0.617
REMARK  7 active torsions:
REMARK  status: ('A' for Active; 'I' for Inactive)
REMARK    1  A    between atoms: C_2  and  C_3 
REMARK    2  A    between atoms: C_6  and  C_9 
REMARK    3  A    between atoms: O_7  and  C_10 
REMARK    4  A    between atoms: O_7  and  C_8 
REMARK    5  A    between atoms: C_8  and  C_9 
REMARK    6  A    between atoms: C_11  and  N_13 
REMARK    7  A    between atoms: N_13  and  C_15 
ROOT
HETATM    1  C   UNL     1      -0.880 -16.543  10.963  1.00  0.00     0.241 A 
HETATM    2  C   UNL     1      -0.730 -16.497  12.234  1.00  0.00     0.211 A 
HETATM    3  O   UNL     1      -1.878 -16.489  11.881  1.00  0.00    -0.262 OA
ENDROOT
BRANCH   2   4
HETATM    4  N   UNL     1       0.080 -16.455  13.390  1.00  0.00    -0.317 N 
ATOM      5  HN  UNL     1       1.095 -16.437  13.280  1.00  0.00     0.169 HD
BRANCH   4   6
HETATM    6  C   UNL     1      -0.425 -16.439  14.595  1.00  0.00     0.137 A 
HETATM    7  N   UNL     1      -1.615 -15.888  14.949  1.00  0.00    -0.283 N 
HETATM    8  N   UNL     1      -2.178 -15.849  16.109  1.00  0.00    -0.295 N 
ATOM      9  HN  UNL     1      -2.135 -15.443  14.193  1.00  0.00     0.188 HD
HETATM   10  C   UNL     1      -1.437 -16.526  16.708  1.00  0.00     0.197 A 
ATOM     11  HN  UNL     1      -3.024 -15.368  16.415  1.00  0.00     0.187 HD
HETATM   12  N   UNL     1      -0.447 -17.215  16.779  1.00  0.00    -0.357 N 
HETATM   13  C   UNL     1       0.200 -17.170  15.677  1.00  0.00     0.138 A 
ATOM     14  HN  UNL     1      -0.167 -17.753  17.598  1.00  0.00     0.166 HD
ENDBRANCH   4   6
ENDBRANCH   2   4
BRANCH   1  15
HETATM   15  O   UNL     1      -0.987 -16.411   9.653  1.00  0.00    -0.323 OA
BRANCH  15  16
HETATM   16  C   UNL     1       0.040 -16.419   8.709  1.00  0.00     0.208 C 
BRANCH  16  17
HETATM   17  C   UNL     1       0.683 -17.491   9.137  1.00  0.00     0.031 C 
BRANCH  17  18
HETATM   18  C   UNL     1       1.759 -17.696   8.711  1.00  0.00     0.057 A 
HETATM   19  C   UNL     1       2.617 -19.237   8.492  1.00  0.00     0.055 A 
HETATM   20  N   UNL     1       2.932 -17.946   8.400  1.00  0.00    -0.353 N 
ATOM     21  HN  UNL     1       3.767 -17.405   8.173  1.00  0.00     0.166 HD
BRANCH  19  22
HETATM   22  C   UNL     1       2.772 -20.373   8.443  1.00  0.00     0.001 C 
HETATM   23  C   UNL     1       3.156 -21.582   7.977  1.00  0.00     0.038 C 
ENDBRANCH  19  22
ENDBRANCH  17  18
ENDBRANCH  16  17
ENDBRANCH  15  16
ENDBRANCH   1  15
TORSDOF 7
ENDMDL
MODEL 2
REMARK VINA RESULT:    -5.777     29.177     30.736
REMARK INTER + INTRA:          -8.759
REMARK INTER:                  -7.987
REMARK INTRA:                  -0.771
REMARK UNBOUND:                -0.617
REMARK  7 active torsions:
REMARK  status: ('A' for Active; 'I' for Inactive)
REMARK    1  A    between atoms: C_2  and  C_3 
REMARK    2  A    between atoms: C_6  and  C_9 
REMARK    3  A    between atoms: O_7  and  C_10 
REMARK    4  A    between atoms: O_7  and  C_8 
REMARK    5  A    between atoms: C_8  and  C_9 
REMARK    6  A    between atoms: C_11  and  N_13 
REMARK    7  A    between atoms: N_13  and  C_15 
ROOT
HETATM    1  C   UNL     1       7.149  10.796   4.150  1.00  0.00     0.241 A 
HETATM    2  C   UNL     1       7.726  11.786   3.580  1.00  0.00     0.211 A 
HETATM    3  O   UNL     1       8.405  11.241   4.407  1.00  0.00    -0.262 OA
ENDROOT
BRANCH   2   4
HETATM    4  N   UNL     1       7.736  12.860   2.662  1.00  0.00    -0.317 N 
ATOM      5  HN  UNL     1       7.023  12.891   1.932  1.00  0.00     0.169 HD
BRANCH   4   6
HETATM    6  C   UNL     1       8.626  13.816   2.716  1.00  0.00     0.137 A 
HETATM    7  N   UNL     1       9.924  13.670   3.088  1.00  0.00    -0.283 N 
HETATM    8  N   UNL     1      10.855  14.561   3.150  1.00  0.00    -0.295 N 
ATOM      9  HN  UNL     1      10.201  12.726   3.356  1.00  0.00     0.188 HD
HETATM   10  C   UNL     1      10.289  15.467   2.676  1.00  0.00     0.197 A 
ATOM     11  HN  UNL     1      11.808  14.494   3.507  1.00  0.00     0.187 HD
HETATM   12  N   UNL     1       9.307  15.965   2.179  1.00  0.00    -0.357 N 
HETATM   13  C   UNL     1       8.328  15.143   2.220  1.00  0.00     0.138 A 
ATOM     14  HN  UNL     1       9.264  16.904   1.783  1.00  0.00     0.166 HD
ENDBRANCH   4   6
ENDBRANCH   2   4
BRANCH   1  15
HETATM   15  O   UNL     1       6.460   9.901   4.834  1.00  0.00    -0.323 OA
BRANCH  15  16
HETATM   16  C   UNL     1       5.243  10.083   5.490  1.00  0.00     0.208 C 
BRANCH  16  17
HETATM   17  C   UNL     1       4.613   9.021   5.021  1.00  0.00     0.031 C 
BRANCH  17  18
HETATM   18  C   UNL     1       5.207   8.009   4.960  1.00  0.00     0.057 A 
HETATM   19  C   UNL     1       4.603   6.338   4.957  1.00  0.00     0.055 A 
HETATM   20  N   UNL     1       5.797   6.921   5.037  1.00  0.00    -0.353 N 
ATOM     21  HN  UNL     1       6.765   6.612   5.123  1.00  0.00     0.166 HD
BRANCH  19  22
HETATM   22  C   UNL     1       3.843   5.479   4.905  1.00  0.00     0.001 C 
HETATM   23  C   UNL     1       2.736   4.783   4.560  1.00  0.00     0.038 C 
ENDBRANCH  19  22
ENDBRANCH  17  18
ENDBRANCH  16  17
ENDBRANCH  15  16
ENDBRANCH   1  15
TORSDOF 7
ENDMDL
MODEL 3
REMARK VINA RESULT:    -5.760      2.460      3.907
REMARK INTER + INTRA:          -8.734
REMARK INTER:                  -8.254
REMARK INTRA:                  -0.481
REMARK UNBOUND:                -0.617
REMARK  7 active torsions:
REMARK  status: ('A' for Active; 'I' for Inactive)
REMARK    1  A    between atoms: C_2  and  C_3 
REMARK    2  A    between atoms: C_6  and  C_9 
REMARK    3  A    between atoms: O_7  and  C_10 
REMARK    4  A    between atoms: O_7  and  C_8 
REMARK    5  A    between atoms: C_8  and  C_9 
REMARK    6  A    between atoms: C_11  and  N_13 
REMARK    7  A    between atoms: N_13  and  C_15 
ROOT
HETATM    1  C   UNL     1       0.904 -18.844   9.152  1.00  0.00     0.241 A 
HETATM    2  C   UNL     1       0.488 -17.784   9.738  1.00  0.00     0.211 A 
HETATM    3  O   UNL     1      -0.353 -18.340   9.086  1.00  0.00    -0.262 OA
ENDROOT
BRANCH   2   4
HETATM    4  N   UNL     1       0.696 -16.654  10.560  1.00  0.00    -0.317 N 
ATOM      5  HN  UNL     1       1.055 -15.798  10.138  1.00  0.00     0.169 HD
BRANCH   4   6
HETATM    6  C   UNL     1       0.442 -16.669  11.842  1.00  0.00     0.137 A 
HETATM    7  N   UNL     1       1.370 -16.697  12.834  1.00  0.00    -0.283 N 
HETATM    8  N   UNL     1       1.193 -16.697  14.111  1.00  0.00    -0.295 N 
ATOM      9  HN  UNL     1       2.342 -16.722  12.525  1.00  0.00     0.188 HD
HETATM   10  C   UNL     1       0.035 -16.537  14.147  1.00  0.00     0.197 A 
ATOM     11  HN  UNL     1       1.866 -16.806  14.870  1.00  0.00     0.187 HD
HETATM   12  N   UNL     1      -1.033 -16.378  13.606  1.00  0.00    -0.357 N 
HETATM   13  C   UNL     1      -0.907 -16.499  12.339  1.00  0.00     0.138 A 
ATOM     14  HN  UNL     1      -1.909 -16.176  14.088  1.00  0.00     0.166 HD
ENDBRANCH   4   6
ENDBRANCH   2   4
BRANCH   1  15
HETATM   15  O   UNL     1       1.416 -19.822   8.427  1.00  0.00    -0.323 OA
BRANCH  15  16
HETATM   16  C   UNL     1       2.753 -20.020   8.085  1.00  0.00     0.208 C 
BRANCH  16  17
HETATM   17  C   UNL     1       2.792 -21.334   8.220  1.00  0.00     0.031 C 
BRANCH  17  18
HETATM   18  C   UNL     1       2.220 -21.812   9.128  1.00  0.00     0.057 A 
HETATM   19  C   UNL     1       2.375 -23.433   9.840  1.00  0.00     0.055 A 
HETATM   20  N   UNL     1       1.547 -22.401   9.987  1.00  0.00    -0.353 N 
ATOM     21  HN  UNL     1       0.725 -22.189  10.554  1.00  0.00     0.166 HD
BRANCH  19  22
HETATM   22  C   UNL     1       2.819 -24.474  10.034  1.00  0.00     0.001 C 
HETATM   23  C   UNL     1       3.738 -25.442  10.243  1.00  0.00     0.038 C 
ENDBRANCH  19  22
ENDBRANCH  17  18
ENDBRANCH  16  17
ENDBRANCH  15  16
ENDBRANCH   1  15
TORSDOF 7
ENDMDL
MODEL 4
REMARK VINA RESULT:    -5.581      3.739      5.723
REMARK INTER + INTRA:          -8.482
REMARK INTER:                  -8.073
REMARK INTRA:                  -0.410
REMARK UNBOUND:                -0.617
REMARK  7 active torsions:
REMARK  status: ('A' for Active; 'I' for Inactive)
REMARK    1  A    between atoms: C_2  and  C_3 
REMARK    2  A    between atoms: C_6  and  C_9 
REMARK    3  A    between atoms: O_7  and  C_10 
REMARK    4  A    between atoms: O_7  and  C_8 
REMARK    5  A    between atoms: C_8  and  C_9 
REMARK    6  A    between atoms: C_11  and  N_13 
REMARK    7  A    between atoms: N_13  and  C_15 
ROOT
HETATM    1  C   UNL     1       2.031 -19.240   7.810  1.00  0.00     0.241 A 
HETATM    2  C   UNL     1       1.600 -18.064   8.078  1.00  0.00     0.211 A 
HETATM    3  O   UNL     1       1.214 -18.493   7.025  1.00  0.00    -0.262 OA
ENDROOT
BRANCH   2   4
HETATM    4  N   UNL     1       1.527 -16.928   8.913  1.00  0.00    -0.317 N 
ATOM      5  HN  UNL     1       2.390 -16.450   9.173  1.00  0.00     0.169 HD
BRANCH   4   6
HETATM    6  C   UNL     1       0.390 -16.467   9.365  1.00  0.00     0.137 A 
HETATM    7  N   UNL     1       0.109 -16.183  10.663  1.00  0.00    -0.283 N 
HETATM    8  N   UNL     1      -0.979 -15.714  11.174  1.00  0.00    -0.295 N 
ATOM      9  HN  UNL     1       0.862 -16.366  11.326  1.00  0.00     0.188 HD
HETATM   10  C   UNL     1      -1.575 -15.493  10.192  1.00  0.00     0.197 A 
ATOM     11  HN  UNL     1      -1.242 -15.576  12.149  1.00  0.00     0.187 HD
HETATM   12  N   UNL     1      -1.676 -15.486   8.988  1.00  0.00    -0.357 N 
HETATM   13  C   UNL     1      -0.664 -16.061   8.459  1.00  0.00     0.138 A 
ATOM     14  HN  UNL     1      -2.454 -15.080   8.470  1.00  0.00     0.166 HD
ENDBRANCH   4   6
ENDBRANCH   2   4
BRANCH   1  15
HETATM   15  O   UNL     1       2.635 -20.371   7.492  1.00  0.00    -0.323 OA
BRANCH  15  16
HETATM   16  C   UNL     1       3.565 -21.083   8.250  1.00  0.00     0.208 C 
BRANCH  16  17
HETATM   17  C   UNL     1       2.717 -21.800   8.965  1.00  0.00     0.031 C 
BRANCH  17  18
HETATM   18  C   UNL     1       2.570 -22.930   8.678  1.00  0.00     0.057 A 
HETATM   19  C   UNL     1       3.055 -24.396   9.556  1.00  0.00     0.055 A 
HETATM   20  N   UNL     1       2.560 -24.126   8.350  1.00  0.00    -0.353 N 
ATOM     21  HN  UNL     1       2.292 -24.662   7.525  1.00  0.00     0.166 HD
BRANCH  19  22
HETATM   22  C   UNL     1       3.440 -25.040  10.425  1.00  0.00     0.001 C 
HETATM   23  C   UNL     1       4.145 -25.981  11.092  1.00  0.00     0.038 C 
ENDBRANCH  19  22
ENDBRANCH  17  18
ENDBRANCH  16  17
ENDBRANCH  15  16
ENDBRANCH   1  15
TORSDOF 7
ENDMDL
MODEL 5
REMARK VINA RESULT:    -5.369     20.093     22.297
REMARK INTER + INTRA:          -8.184
REMARK INTER:                  -7.746
REMARK INTRA:                  -0.438
REMARK UNBOUND:                -0.617
REMARK  7 active torsions:
REMARK  status: ('A' for Active; 'I' for Inactive)
REMARK    1  A    between atoms: C_2  and  C_3 
REMARK    2  A    between atoms: C_6  and  C_9 
REMARK    3  A    between atoms: O_7  and  C_10 
REMARK    4  A    between atoms: O_7  and  C_8 
REMARK    5  A    between atoms: C_8  and  C_9 
REMARK    6  A    between atoms: C_11  and  N_13 
REMARK    7  A    between atoms: N_13  and  C_15 
ROOT
HETATM    1  C   UNL     1       8.460  -1.408  21.963  1.00  0.00     0.241 A 
HETATM    2  C   UNL     1       7.247  -1.686  21.662  1.00  0.00     0.211 A 
HETATM    3  O   UNL     1       7.816  -2.569  22.244  1.00  0.00    -0.262 OA
ENDROOT
BRANCH   2   4
HETATM    4  N   UNL     1       6.005  -1.358  21.075  1.00  0.00    -0.317 N 
ATOM      5  HN  UNL     1       5.146  -1.660  21.536  1.00  0.00     0.169 HD
BRANCH   4   6
HETATM    6  C   UNL     1       5.918  -0.680  19.960  1.00  0.00     0.137 A 
HETATM    7  N   UNL     1       5.666  -1.202  18.732  1.00  0.00    -0.283 N 
HETATM    8  N   UNL     1       5.553  -0.594  17.600  1.00  0.00    -0.295 N 
ATOM      9  HN  UNL     1       5.551  -2.215  18.701  1.00  0.00     0.188 HD
HETATM   10  C   UNL     1       5.599   0.514  17.969  1.00  0.00     0.197 A 
ATOM     11  HN  UNL     1       5.451  -0.971  16.657  1.00  0.00     0.187 HD
HETATM   12  N   UNL     1       5.698   1.340  18.845  1.00  0.00    -0.357 N 
HETATM   13  C   UNL     1       5.938   0.768  19.963  1.00  0.00     0.138 A 
ATOM     14  HN  UNL     1       5.603   2.347  18.713  1.00  0.00     0.166 HD
ENDBRANCH   4   6
ENDBRANCH   2   4
BRANCH   1  15
HETATM   15  O   UNL     1       9.750  -1.154  22.094  1.00  0.00    -0.323 OA
BRANCH  15  16
HETATM   16  C   UNL     1      10.650  -1.749  22.978  1.00  0.00     0.208 C 
BRANCH  16  17
HETATM   17  C   UNL     1      10.543  -0.883  23.969  1.00  0.00     0.031 C 
BRANCH  17  18
HETATM   18  C   UNL     1      10.953   0.205  23.798  1.00  0.00     0.057 A 
HETATM   19  C   UNL     1      10.183   1.772  24.130  1.00  0.00     0.055 A 
HETATM   20  N   UNL     1      11.287   1.363  23.507  1.00  0.00    -0.353 N 
ATOM     21  HN  UNL     1      12.062   1.805  23.013  1.00  0.00     0.166 HD
BRANCH  19  22
HETATM   22  C   UNL     1       9.412   2.514  24.545  1.00  0.00     0.001 C 
HETATM   23  C   UNL     1       8.306   2.979  25.167  1.00  0.00     0.038 C 
ENDBRANCH  19  22
ENDBRANCH  17  18
ENDBRANCH  16  17
ENDBRANCH  15  16
ENDBRANCH   1  15
TORSDOF 7
ENDMDL
MODEL 6
REMARK VINA RESULT:    -5.324     37.200     38.682
REMARK INTER + INTRA:          -8.120
REMARK INTER:                  -7.315
REMARK INTRA:                  -0.805
REMARK UNBOUND:                -0.617
REMARK  7 active torsions:
REMARK  status: ('A' for Active; 'I' for Inactive)
REMARK    1  A    between atoms: C_2  and  C_3 
REMARK    2  A    between atoms: C_6  and  C_9 
REMARK    3  A    between atoms: O_7  and  C_10 
REMARK    4  A    between atoms: O_7  and  C_8 
REMARK    5  A    between atoms: C_8  and  C_9 
REMARK    6  A    between atoms: C_11  and  N_13 
REMARK    7  A    between atoms: N_13  and  C_15 
ROOT
HETATM    1  C   UNL     1       9.491  18.747   0.420  1.00  0.00     0.241 A 
HETATM    2  C   UNL     1       9.024  17.577   0.649  1.00  0.00     0.211 A 
HETATM    3  O   UNL     1       9.920  17.593  -0.150  1.00  0.00    -0.262 OA
ENDROOT
BRANCH   2   4
HETATM    4  N   UNL     1       8.123  16.702   1.296  1.00  0.00    -0.317 N 
ATOM      5  HN  UNL     1       7.122  16.887   1.229  1.00  0.00     0.169 HD
BRANCH   4   6
HETATM    6  C   UNL     1       8.529  15.663   1.977  1.00  0.00     0.137 A 
HETATM    7  N   UNL     1       9.815  15.239   2.087  1.00  0.00    -0.283 N 
HETATM    8  N   UNL     1      10.286  14.238   2.750  1.00  0.00    -0.295 N 
ATOM      9  HN  UNL     1      10.504  15.789   1.573  1.00  0.00     0.188 HD
HETATM   10  C   UNL     1       9.317  13.904   3.311  1.00  0.00     0.197 A 
ATOM     11  HN  UNL     1      11.229  13.851   2.777  1.00  0.00     0.187 HD
HETATM   12  N   UNL     1       8.142  14.023   3.569  1.00  0.00    -0.357 N 
HETATM   13  C   UNL     1       7.621  14.928   2.832  1.00  0.00     0.138 A 
ATOM     14  HN  UNL     1       7.640  13.482   4.272  1.00  0.00     0.166 HD
ENDBRANCH   4   6
ENDBRANCH   2   4
BRANCH   1  15
HETATM   15  O   UNL     1       9.821  19.980   0.081  1.00  0.00    -0.323 OA
BRANCH  15  16
HETATM   16  C   UNL     1       8.967  21.019  -0.291  1.00  0.00     0.208 C 
BRANCH  16  17
HETATM   17  C   UNL     1       9.311  21.891   0.640  1.00  0.00     0.031 C 
BRANCH  17  18
HETATM   18  C   UNL     1      10.449  21.977   0.922  1.00  0.00     0.057 A 
HETATM   19  C   UNL     1      11.222  22.002   2.521  1.00  0.00     0.055 A 
HETATM   20  N   UNL     1      11.618  22.205   1.266  1.00  0.00    -0.353 N 
ATOM     21  HN  UNL     1      12.492  22.442   0.798  1.00  0.00     0.166 HD
BRANCH  19  22
HETATM   22  C   UNL     1      11.317  21.904   3.661  1.00  0.00     0.001 C 
HETATM   23  C   UNL     1      11.245  21.364   4.898  1.00  0.00     0.038 C 
ENDBRANCH  19  22
ENDBRANCH  17  18
ENDBRANCH  16  17
ENDBRANCH  15  16
ENDBRANCH   1  15
TORSDOF 7
ENDMDL
MODEL 7
REMARK VINA RESULT:    -5.295     20.198     22.426
REMARK INTER + INTRA:          -8.079
REMARK INTER:                  -7.677
REMARK INTRA:                  -0.402
REMARK UNBOUND:                -0.617
REMARK  7 active torsions:
REMARK  status: ('A' for Active; 'I' for Inactive)
REMARK    1  A    between atoms: C_2  and  C_3 
REMARK    2  A    between atoms: C_6  and  C_9 
REMARK    3  A    between atoms: O_7  and  C_10 
REMARK    4  A    between atoms: O_7  and  C_8 
REMARK    5  A    between atoms: C_8  and  C_9 
REMARK    6  A    between atoms: C_11  and  N_13 
REMARK    7  A    between atoms: N_13  and  C_15 
ROOT
HETATM    1  C   UNL     1       8.491  -2.695  23.361  1.00  0.00     0.241 A 
HETATM    2  C   UNL     1       9.204  -2.067  22.503  1.00  0.00     0.211 A 
HETATM    3  O   UNL     1       8.071  -2.249  22.151  1.00  0.00    -0.262 OA
ENDROOT
BRANCH   2   4
HETATM    4  N   UNL     1      10.426  -1.502  22.077  1.00  0.00    -0.317 N 
ATOM      5  HN  UNL     1      10.582  -1.359  21.079  1.00  0.00     0.169 HD
BRANCH   4   6
HETATM    6  C   UNL     1      11.365  -1.156  22.919  1.00  0.00     0.137 A 
HETATM    7  N   UNL     1      12.653  -1.587  22.892  1.00  0.00    -0.283 N 
HETATM    8  N   UNL     1      13.629  -1.277  23.676  1.00  0.00    -0.295 N 
ATOM      9  HN  UNL     1      12.879  -2.248  22.149  1.00  0.00     0.188 HD
HETATM   10  C   UNL     1      13.112  -0.441  24.309  1.00  0.00     0.197 A 
ATOM     11  HN  UNL     1      14.576  -1.652  23.729  1.00  0.00     0.187 HD
HETATM   12  N   UNL     1      12.158   0.249  24.583  1.00  0.00    -0.357 N 
HETATM   13  C   UNL     1      11.138  -0.122  23.907  1.00  0.00     0.138 A 
ATOM     14  HN  UNL     1      12.165   1.015  25.255  1.00  0.00     0.166 HD
ENDBRANCH   4   6
ENDBRANCH   2   4
BRANCH   1  15
HETATM   15  O   UNL     1       7.844  -3.495  24.190  1.00  0.00    -0.323 OA
BRANCH  15  16
HETATM   16  C   UNL     1       8.176  -4.802  24.546  1.00  0.00     0.208 C 
BRANCH  16  17
HETATM   17  C   UNL     1       8.479  -4.583  25.813  1.00  0.00     0.031 C 
BRANCH  17  18
HETATM   18  C   UNL     1       8.080  -5.343  26.615  1.00  0.00     0.057 A 
HETATM   19  C   UNL     1       6.736  -5.177  27.765  1.00  0.00     0.055 A 
HETATM   20  N   UNL     1       7.717  -6.054  27.563  1.00  0.00    -0.353 N 
ATOM     21  HN  UNL     1       8.029  -6.924  27.996  1.00  0.00     0.166 HD
BRANCH  19  22
HETATM   22  C   UNL     1       5.802  -4.723  28.254  1.00  0.00     0.001 C 
HETATM   23  C   UNL     1       4.776  -4.557  29.119  1.00  0.00     0.038 C 
ENDBRANCH  19  22
ENDBRANCH  17  18
ENDBRANCH  16  17
ENDBRANCH  15  16
ENDBRANCH   1  15
TORSDOF 7
ENDMDL
MODEL 8
REMARK VINA RESULT:    -5.272     18.552     20.516
REMARK INTER + INTRA:          -8.046
REMARK INTER:                  -7.428
REMARK INTRA:                  -0.618
REMARK UNBOUND:                -0.617
REMARK  7 active torsions:
REMARK  status: ('A' for Active; 'I' for Inactive)
REMARK    1  A    between atoms: C_2  and  C_3 
REMARK    2  A    between atoms: C_6  and  C_9 
REMARK    3  A    between atoms: O_7  and  C_10 
REMARK    4  A    between atoms: O_7  and  C_8 
REMARK    5  A    between atoms: C_8  and  C_9 
REMARK    6  A    between atoms: C_11  and  N_13 
REMARK    7  A    between atoms: N_13  and  C_15 
ROOT
HETATM    1  C   UNL     1       6.143  -3.659  22.004  1.00  0.00     0.241 A 
HETATM    2  C   UNL     1       5.910  -2.568  21.377  1.00  0.00     0.211 A 
HETATM    3  O   UNL     1       5.419  -3.535  20.863  1.00  0.00    -0.262 OA
ENDROOT
BRANCH   2   4
HETATM    4  N   UNL     1       6.048  -1.171  21.220  1.00  0.00    -0.317 N 
ATOM      5  HN  UNL     1       6.220  -0.596  22.045  1.00  0.00     0.169 HD
BRANCH   4   6
HETATM    6  C   UNL     1       5.962  -0.589  20.052  1.00  0.00     0.137 A 
HETATM    7  N   UNL     1       5.657  -1.204  18.880  1.00  0.00    -0.283 N 
HETATM    8  N   UNL     1       5.541  -0.692  17.702  1.00  0.00    -0.295 N 
ATOM      9  HN  UNL     1       5.498  -2.210  18.940  1.00  0.00     0.188 HD
HETATM   10  C   UNL     1       5.644   0.441  17.970  1.00  0.00     0.197 A 
ATOM     11  HN  UNL     1       5.399  -1.145  16.798  1.00  0.00     0.187 HD
HETATM   12  N   UNL     1       5.799   1.334  18.769  1.00  0.00    -0.357 N 
HETATM   13  C   UNL     1       6.043   0.851  19.927  1.00  0.00     0.138 A 
ATOM     14  HN  UNL     1       5.744   2.329  18.551  1.00  0.00     0.166 HD
ENDBRANCH   4   6
ENDBRANCH   2   4
BRANCH   1  15
HETATM   15  O   UNL     1       6.552  -4.777  22.576  1.00  0.00    -0.323 OA
BRANCH  15  16
HETATM   16  C   UNL     1       7.653  -4.952  23.414  1.00  0.00     0.208 C 
BRANCH  16  17
HETATM   17  C   UNL     1       7.096  -4.558  24.545  1.00  0.00     0.031 C 
BRANCH  17  18
HETATM   18  C   UNL     1       7.765  -3.976  25.317  1.00  0.00     0.057 A 
HETATM   19  C   UNL     1       8.363  -2.304  25.264  1.00  0.00     0.055 A 
HETATM   20  N   UNL     1       8.578  -3.371  26.031  1.00  0.00    -0.353 N 
ATOM     21  HN  UNL     1       9.155  -3.592  26.842  1.00  0.00     0.166 HD
BRANCH  19  22
HETATM   22  C   UNL     1       8.465  -1.219  24.902  1.00  0.00     0.001 C 
HETATM   23  C   UNL     1       8.413  -0.144  24.084  1.00  0.00     0.038 C 
ENDBRANCH  19  22
ENDBRANCH  17  18
ENDBRANCH  16  17
ENDBRANCH  15  16
ENDBRANCH   1  15
TORSDOF 7
ENDMDL
MODEL 9
REMARK VINA RESULT:    -5.247     20.370     22.258
REMARK INTER + INTRA:          -8.011
REMARK INTER:                  -7.456
REMARK INTRA:                  -0.555
REMARK UNBOUND:                -0.617
REMARK  7 active torsions:
REMARK  status: ('A' for Active; 'I' for Inactive)
REMARK    1  A    between atoms: C_2  and  C_3 
REMARK    2  A    between atoms: C_6  and  C_9 
REMARK    3  A    between atoms: O_7  and  C_10 
REMARK    4  A    between atoms: O_7  and  C_8 
REMARK    5  A    between atoms: C_8  and  C_9 
REMARK    6  A    between atoms: C_11  and  N_13 
REMARK    7  A    between atoms: N_13  and  C_15 
ROOT
HETATM    1  C   UNL     1       7.226  -0.523  20.441  1.00  0.00     0.241 A 
HETATM    2  C   UNL     1       8.337  -0.240  21.011  1.00  0.00     0.211 A 
HETATM    3  O   UNL     1       7.404  -0.290  21.765  1.00  0.00    -0.262 OA
ENDROOT
BRANCH   2   4
HETATM    4  N   UNL     1       9.726   0.011  20.972  1.00  0.00    -0.317 N 
ATOM      5  HN  UNL     1      10.132   0.403  20.122  1.00  0.00     0.169 HD
BRANCH   4   6
HETATM    6  C   UNL     1      10.509  -0.240  21.988  1.00  0.00     0.137 A 
HETATM    7  N   UNL     1      11.315  -1.325  22.119  1.00  0.00    -0.283 N 
HETATM    8  N   UNL     1      12.120  -1.627  23.080  1.00  0.00    -0.295 N 
ATOM      9  HN  UNL     1      11.280  -1.994  21.349  1.00  0.00     0.188 HD
HETATM   10  C   UNL     1      12.041  -0.648  23.715  1.00  0.00     0.197 A 
ATOM     11  HN  UNL     1      12.667  -2.473  23.241  1.00  0.00     0.187 HD
HETATM   12  N   UNL     1      11.598   0.459  23.911  1.00  0.00    -0.357 N 
HETATM   13  C   UNL     1      10.703   0.735  23.041  1.00  0.00     0.138 A 
ATOM     14  HN  UNL     1      11.896   1.083  24.660  1.00  0.00     0.166 HD
ENDBRANCH   4   6
ENDBRANCH   2   4
BRANCH   1  15
HETATM   15  O   UNL     1       6.080  -0.639  19.793  1.00  0.00    -0.323 OA
BRANCH  15  16
HETATM   16  C   UNL     1       5.846  -0.437  18.433  1.00  0.00     0.208 C 
BRANCH  16  17
HETATM   17  C   UNL     1       5.675   0.872  18.461  1.00  0.00     0.031 C 
BRANCH  17  18
HETATM   18  C   UNL     1       4.839   1.305  19.165  1.00  0.00     0.057 A 
HETATM   19  C   UNL     1       4.994   2.254  20.660  1.00  0.00     0.055 A 
HETATM   20  N   UNL     1       3.999   1.658  20.006  1.00  0.00    -0.353 N 
ATOM     21  HN  UNL     1       2.994   1.543  20.138  1.00  0.00     0.166 HD
BRANCH  19  22
HETATM   22  C   UNL     1       5.503   2.875  21.480  1.00  0.00     0.001 C 
HETATM   23  C   UNL     1       6.405   3.677  22.088  1.00  0.00     0.038 C 
ENDBRANCH  19  22
ENDBRANCH  17  18
ENDBRANCH  16  17
ENDBRANCH  15  16
ENDBRANCH   1  15
TORSDOF 7
ENDMDL
