REMARK  5 active torsions:
REMARK  status: ('A' for Active; 'I' for Inactive)
REMARK    1  A    between atoms: O_1  and  C_3 
REMARK    2  A    between atoms: C_5  and  C_6 
REMARK    3  A    between atoms: C_6  and  C_7 
REMARK    4  A    between atoms: C_8  and  N_11 
REMARK    5  A    between atoms: O_15  and  C_16 
ROOT
HETATM    1  C   UNL     1       9.943  -0.647  22.536  1.00  0.00     0.065 C 
HETATM    2  N   UNL     1       8.609  -0.463  22.539  1.00  0.00    -0.344 N 
ATOM      3  HN  UNL     1       7.994  -0.458  23.353  1.00  0.00     0.166 HD
ENDROOT
BRANCH   2   4
HETATM    4  C   UNL     1       8.336  -0.330  21.565  1.00  0.00     0.299 A 
HETATM    5  O   UNL     1       7.634  -0.984  20.422  1.00  0.00     0.000 OA
HETATM    6  N   UNL     1       7.831   0.767  20.725  1.00  0.00     0.180 N 
HETATM    7  C   UNL     1       6.995   0.055  20.185  1.00  0.00     0.235 A 
HETATM    8  H   UNL     1       8.364   1.569  20.480  1.00  0.00     0.333 HD
HETATM    9  C   UNL     1       6.096   0.252  19.087  1.00  0.00     0.174 C 
BRANCH   9  10
HETATM   10  O   UNL     1       5.981  -0.682  18.251  1.00  0.00    -0.370 OA
HETATM   11  H   UNL     1       6.662  -1.354  18.221  1.00  0.00     0.216 HD
ENDBRANCH   9  10
ENDBRANCH   2   4
BRANCH   1  12
HETATM   12  C   UNL     1      10.966  -0.419  23.646  1.00  0.00     0.081 C 
BRANCH  12  13
HETATM   13  C   UNL     1      10.973  -1.858  24.079  1.00  0.00     0.184 A 
HETATM   14  C   UNL     1       9.924  -2.689  24.682  1.00  0.00     0.289 A 
HETATM   15  O   UNL     1      10.226  -1.795  25.255  1.00  0.00    -0.348 OA
BRANCH  14  16
HETATM   16  O   UNL     1       9.121  -3.831  24.841  1.00  0.00    -0.363 OA
HETATM   17  C   UNL     1       8.027  -3.249  25.520  1.00  0.00     0.204 C 
ENDBRANCH  14  16
ENDBRANCH  12  13
ENDBRANCH   1  12
TORSDOF 5
