MODEL 1
REMARK VINA RESULT:    -5.501      0.000      0.000
REMARK INTER + INTRA:          -6.520
REMARK INTER:                  -7.109
REMARK INTRA:                   0.589
REMARK UNBOUND:                 0.589
REMARK  5 active torsions:
REMARK  status: ('A' for Active; 'I' for Inactive)
REMARK    1  A    between atoms: O_2  and  C_3 
REMARK    2  A    between atoms: C_3  and  C_4 
REMARK    3  A    between atoms: C_9  and  C_10 
REMARK       I    between atoms: C_10  and  N_12 
REMARK    4  A    between atoms: C_14  and  C_18 
REMARK    5  A    between atoms: C_15  and  C_17 
ROOT
HETATM    1  C   UNL     1       5.815  -5.677  25.093  1.00  0.00     0.110 A 
HETATM    2  C   UNL     1       6.387  -5.196  24.034  1.00  0.00     0.154 A 
HETATM    3  C   UNL     1       6.850  -5.463  22.442  1.00  0.00     0.066 A 
HETATM    4  C   UNL     1       6.167  -6.029  21.544  1.00  0.00     0.019 C 
HETATM    5  O   UNL     1       5.202  -5.437  23.796  1.00  0.00    -0.327 OA
HETATM    6  C   UNL     1       7.354  -4.628  23.353  1.00  0.00     0.037 A 
ENDROOT
BRANCH   6   7
HETATM    7  C   UNL     1       8.359  -3.445  23.532  1.00  0.00     0.251 C 
HETATM    8  O   UNL     1       8.715  -3.222  24.647  1.00  0.00    -0.268 OA
HETATM    9  N   UNL     1       8.804  -2.801  22.409  1.00  0.00    -0.333 N 
HETATM   10  C   UNL     1       9.511  -1.751  22.407  1.00  0.00     0.091 C 
ATOM     11  HN  UNL     1       8.545  -3.197  21.505  1.00  0.00     0.168 HD
BRANCH  10  12
HETATM   12  C   UNL     1       9.429  -0.492  22.187  1.00  0.00     0.020 C 
HETATM   13  C   UNL     1      10.708  -0.081  22.341  1.00  0.00     0.042 C 
BRANCH  13  14
HETATM   14  C   UNL     1      11.306  -1.297  22.514  1.00  0.00     0.258 C 
HETATM   15  O   UNL     1      12.353  -1.772  22.581  1.00  0.00    -0.302 OA
ENDBRANCH  13  14
ENDBRANCH  10  12
ENDBRANCH   6   7
BRANCH   1  16
HETATM   16  C   UNL     1       5.718  -6.055  26.180  1.00  0.00     0.169 C 
BRANCH  16  17
HETATM   17  O   UNL     1       5.967  -6.761  27.169  1.00  0.00    -0.365 OA
HETATM   18  C   UNL     1       4.968  -6.887  28.141  1.00  0.00     0.209 C 
ENDBRANCH  16  17
ENDBRANCH   1  16
TORSDOF 5
ENDMDL
MODEL 2
REMARK VINA RESULT:    -5.257      2.541      6.860
REMARK INTER + INTRA:          -6.204
REMARK INTER:                  -6.799
REMARK INTRA:                   0.595
REMARK UNBOUND:                 0.589
REMARK  5 active torsions:
REMARK  status: ('A' for Active; 'I' for Inactive)
REMARK    1  A    between atoms: O_2  and  C_3 
REMARK    2  A    between atoms: C_3  and  C_4 
REMARK    3  A    between atoms: C_9  and  C_10 
REMARK       I    between atoms: C_10  and  N_12 
REMARK    4  A    between atoms: C_14  and  C_18 
REMARK    5  A    between atoms: C_15  and  C_17 
ROOT
HETATM    1  C   UNL     1       9.052   0.131  21.727  1.00  0.00     0.110 A 
HETATM    2  C   UNL     1       9.421  -0.729  22.624  1.00  0.00     0.154 A 
HETATM    3  C   UNL     1      10.690  -1.376  23.513  1.00  0.00     0.066 A 
HETATM    4  C   UNL     1      11.627  -0.735  24.064  1.00  0.00     0.019 C 
HETATM    5  O   UNL     1       9.638   0.414  23.028  1.00  0.00    -0.327 OA
HETATM    6  C   UNL     1       9.522  -1.920  23.166  1.00  0.00     0.037 A 
ENDROOT
BRANCH   6   7
HETATM    7  C   UNL     1       8.608  -3.163  23.414  1.00  0.00     0.251 C 
HETATM    8  O   UNL     1       8.587  -3.586  24.528  1.00  0.00    -0.268 OA
HETATM    9  N   UNL     1       7.857  -3.630  22.369  1.00  0.00    -0.333 N 
HETATM   10  C   UNL     1       7.176  -4.697  22.385  1.00  0.00     0.091 C 
ATOM     11  HN  UNL     1       7.846  -3.076  21.512  1.00  0.00     0.168 HD
BRANCH  10  12
HETATM   12  C   UNL     1       7.187  -5.896  21.936  1.00  0.00     0.020 C 
HETATM   13  C   UNL     1       5.889  -6.261  22.035  1.00  0.00     0.042 C 
BRANCH  13  14
HETATM   14  C   UNL     1       5.359  -5.069  22.439  1.00  0.00     0.258 C 
HETATM   15  O   UNL     1       4.342  -4.544  22.565  1.00  0.00    -0.302 OA
ENDBRANCH  13  14
ENDBRANCH  10  12
ENDBRANCH   6   7
BRANCH   1  16
HETATM   16  C   UNL     1       8.634   0.518  20.722  1.00  0.00     0.169 C 
BRANCH  16  17
HETATM   17  O   UNL     1       7.922   0.518  19.707  1.00  0.00    -0.365 OA
HETATM   18  C   UNL     1       6.547   0.327  19.881  1.00  0.00     0.209 C 
ENDBRANCH  16  17
ENDBRANCH   1  16
TORSDOF 5
ENDMDL
MODEL 3
REMARK VINA RESULT:    -5.250     19.987     22.531
REMARK INTER + INTRA:          -6.195
REMARK INTER:                  -6.789
REMARK INTRA:                   0.594
REMARK UNBOUND:                 0.589
REMARK  5 active torsions:
REMARK  status: ('A' for Active; 'I' for Inactive)
REMARK    1  A    between atoms: O_2  and  C_3 
REMARK    2  A    between atoms: C_3  and  C_4 
REMARK    3  A    between atoms: C_9  and  C_10 
REMARK       I    between atoms: C_10  and  N_12 
REMARK    4  A    between atoms: C_14  and  C_18 
REMARK    5  A    between atoms: C_15  and  C_17 
ROOT
HETATM    1  C   UNL     1       2.917 -21.798   8.442  1.00  0.00     0.110 A 
HETATM    2  C   UNL     1       2.934 -20.539   8.747  1.00  0.00     0.154 A 
HETATM    3  C   UNL     1       3.822 -19.254   9.364  1.00  0.00     0.066 A 
HETATM    4  C   UNL     1       5.027 -18.979   9.107  1.00  0.00     0.019 C 
HETATM    5  O   UNL     1       3.759 -20.764   7.859  1.00  0.00    -0.327 OA
HETATM    6  C   UNL     1       2.502 -19.445   9.331  1.00  0.00     0.037 A 
ENDROOT
BRANCH   6   7
HETATM    7  C   UNL     1       1.136 -18.733   9.592  1.00  0.00     0.251 C 
HETATM    8  O   UNL     1       0.180 -19.439   9.665  1.00  0.00    -0.268 OA
HETATM    9  N   UNL     1       1.143 -17.377   9.782  1.00  0.00    -0.333 N 
HETATM   10  C   UNL     1       0.109 -16.652   9.873  1.00  0.00     0.091 C 
ATOM     11  HN  UNL     1       2.050 -16.916   9.856  1.00  0.00     0.168 HD
BRANCH  10  12
HETATM   12  C   UNL     1      -0.577 -15.802   9.205  1.00  0.00     0.020 C 
HETATM   13  C   UNL     1      -1.580 -15.495  10.057  1.00  0.00     0.042 C 
BRANCH  13  14
HETATM   14  C   UNL     1      -1.157 -16.197  11.150  1.00  0.00     0.258 C 
HETATM   15  O   UNL     1      -1.296 -16.234  12.292  1.00  0.00    -0.302 OA
ENDBRANCH  13  14
ENDBRANCH  10  12
ENDBRANCH   6   7
BRANCH   1  16
HETATM   16  C   UNL     1       2.603 -22.908   8.492  1.00  0.00     0.169 C 
BRANCH  16  17
HETATM   17  O   UNL     1       2.502 -24.084   8.109  1.00  0.00    -0.365 OA
HETATM   18  C   UNL     1       3.253 -25.051   8.787  1.00  0.00     0.209 C 
ENDBRANCH  16  17
ENDBRANCH   1  16
TORSDOF 5
ENDMDL
MODEL 4
REMARK VINA RESULT:    -5.205      2.311      3.738
REMARK INTER + INTRA:          -6.138
REMARK INTER:                  -6.747
REMARK INTRA:                   0.609
REMARK UNBOUND:                 0.589
REMARK  5 active torsions:
REMARK  status: ('A' for Active; 'I' for Inactive)
REMARK    1  A    between atoms: O_2  and  C_3 
REMARK    2  A    between atoms: C_3  and  C_4 
REMARK    3  A    between atoms: C_9  and  C_10 
REMARK       I    between atoms: C_10  and  N_12 
REMARK    4  A    between atoms: C_14  and  C_18 
REMARK    5  A    between atoms: C_15  and  C_17 
ROOT
HETATM    1  C   UNL     1       7.181  -4.234  23.468  1.00  0.00     0.110 A 
HETATM    2  C   UNL     1       7.769  -3.923  24.580  1.00  0.00     0.154 A 
HETATM    3  C   UNL     1       7.843  -4.150  26.243  1.00  0.00     0.066 A 
HETATM    4  C   UNL     1       7.751  -5.248  26.857  1.00  0.00     0.019 C 
HETATM    5  O   UNL     1       7.926  -5.123  24.347  1.00  0.00    -0.327 OA
HETATM    6  C   UNL     1       8.227  -3.109  25.502  1.00  0.00     0.037 A 
ENDROOT
BRANCH   6   7
HETATM    7  C   UNL     1       9.004  -1.754  25.571  1.00  0.00     0.251 C 
HETATM    8  O   UNL     1       8.896  -1.138  26.585  1.00  0.00    -0.268 OA
HETATM    9  N   UNL     1       9.792  -1.409  24.507  1.00  0.00    -0.333 N 
HETATM   10  C   UNL     1      10.372  -0.292  24.366  1.00  0.00     0.091 C 
ATOM     11  HN  UNL     1       9.922  -2.103  23.771  1.00  0.00     0.168 HD
BRANCH  10  12
HETATM   12  C   UNL     1      10.290   0.799  23.700  1.00  0.00     0.020 C 
HETATM   13  C   UNL     1      11.521   1.335  23.858  1.00  0.00     0.042 C 
BRANCH  13  14
HETATM   14  C   UNL     1      12.119   0.307  24.531  1.00  0.00     0.258 C 
HETATM   15  O   UNL     1      13.165  -0.118  24.758  1.00  0.00    -0.302 OA
ENDBRANCH  13  14
ENDBRANCH  10  12
ENDBRANCH   6   7
BRANCH   1  16
HETATM   16  C   UNL     1       6.556  -4.084  22.509  1.00  0.00     0.169 C 
BRANCH  16  17
HETATM   17  O   UNL     1       5.971  -4.412  21.465  1.00  0.00    -0.365 OA
HETATM   18  C   UNL     1       6.039  -5.755  21.081  1.00  0.00     0.209 C 
ENDBRANCH  16  17
ENDBRANCH   1  16
TORSDOF 5
ENDMDL
MODEL 5
REMARK VINA RESULT:    -5.155      2.615      2.743
REMARK INTER + INTRA:          -6.073
REMARK INTER:                  -6.698
REMARK INTRA:                   0.625
REMARK UNBOUND:                 0.589
REMARK  5 active torsions:
REMARK  status: ('A' for Active; 'I' for Inactive)
REMARK    1  A    between atoms: O_2  and  C_3 
REMARK    2  A    between atoms: C_3  and  C_4 
REMARK    3  A    between atoms: C_9  and  C_10 
REMARK       I    between atoms: C_10  and  N_12 
REMARK    4  A    between atoms: C_14  and  C_18 
REMARK    5  A    between atoms: C_15  and  C_17 
ROOT
HETATM    1  C   UNL     1       4.856  -3.791  23.464  1.00  0.00     0.110 A 
HETATM    2  C   UNL     1       5.964  -3.921  22.803  1.00  0.00     0.154 A 
HETATM    3  C   UNL     1       7.094  -4.977  22.148  1.00  0.00     0.066 A 
HETATM    4  C   UNL     1       6.851  -6.041  21.515  1.00  0.00     0.019 C 
HETATM    5  O   UNL     1       5.036  -4.418  22.163  1.00  0.00    -0.327 OA
HETATM    6  C   UNL     1       7.235  -3.712  22.549  1.00  0.00     0.037 A 
ENDROOT
BRANCH   6   7
HETATM    7  C   UNL     1       8.233  -2.510  22.541  1.00  0.00     0.251 C 
HETATM    8  O   UNL     1       7.889  -1.545  21.933  1.00  0.00    -0.268 OA
HETATM    9  N   UNL     1       9.383  -2.622  23.275  1.00  0.00    -0.333 N 
HETATM   10  C   UNL     1      10.338  -1.790  23.259  1.00  0.00     0.091 C 
ATOM     11  HN  UNL     1       9.479  -3.438  23.880  1.00  0.00     0.168 HD
BRANCH  10  12
HETATM   12  C   UNL     1      11.527  -1.643  22.809  1.00  0.00     0.020 C 
HETATM   13  C   UNL     1      12.018  -0.653  23.587  1.00  0.00     0.042 C 
BRANCH  13  14
HETATM   14  C   UNL     1      10.969  -0.518  24.452  1.00  0.00     0.258 C 
HETATM   15  O   UNL     1      10.593   0.173  25.292  1.00  0.00    -0.302 OA
ENDBRANCH  13  14
ENDBRANCH  10  12
ENDBRANCH   6   7
BRANCH   1  16
HETATM   16  C   UNL     1       4.156  -3.493  24.332  1.00  0.00     0.169 C 
BRANCH  16  17
HETATM   17  O   UNL     1       3.754  -2.824  25.296  1.00  0.00    -0.365 OA
HETATM   18  C   UNL     1       4.598  -1.818  25.780  1.00  0.00     0.209 C 
ENDBRANCH  16  17
ENDBRANCH   1  16
TORSDOF 5
ENDMDL
MODEL 6
REMARK VINA RESULT:    -4.978      2.205      6.855
REMARK INTER + INTRA:          -5.844
REMARK INTER:                  -6.375
REMARK INTRA:                   0.531
REMARK UNBOUND:                 0.589
REMARK  5 active torsions:
REMARK  status: ('A' for Active; 'I' for Inactive)
REMARK    1  A    between atoms: O_2  and  C_3 
REMARK    2  A    between atoms: C_3  and  C_4 
REMARK    3  A    between atoms: C_9  and  C_10 
REMARK       I    between atoms: C_10  and  N_12 
REMARK    4  A    between atoms: C_14  and  C_18 
REMARK    5  A    between atoms: C_15  and  C_17 
ROOT
HETATM    1  C   UNL     1      10.037   1.036  22.327  1.00  0.00     0.110 A 
HETATM    2  C   UNL     1       9.021   0.329  21.944  1.00  0.00     0.154 A 
HETATM    3  C   UNL     1       7.418   0.327  21.442  1.00  0.00     0.066 A 
HETATM    4  C   UNL     1       6.883   1.129  20.628  1.00  0.00     0.019 C 
HETATM    5  O   UNL     1       9.370   1.084  21.035  1.00  0.00    -0.327 OA
HETATM    6  C   UNL     1       8.130  -0.631  22.038  1.00  0.00     0.037 A 
ENDROOT
BRANCH   6   7
HETATM    7  C   UNL     1       8.091  -2.141  22.439  1.00  0.00     0.251 C 
HETATM    8  O   UNL     1       9.033  -2.548  23.044  1.00  0.00    -0.268 OA
HETATM    9  N   UNL     1       6.969  -2.861  22.131  1.00  0.00    -0.333 N 
HETATM   10  C   UNL     1       6.847  -4.113  22.275  1.00  0.00     0.091 C 
ATOM     11  HN  UNL     1       6.169  -2.350  21.756  1.00  0.00     0.168 HD
BRANCH  10  12
HETATM   12  C   UNL     1       6.820  -5.199  21.597  1.00  0.00     0.020 C 
HETATM   13  C   UNL     1       6.789  -6.148  22.559  1.00  0.00     0.042 C 
BRANCH  13  14
HETATM   14  C   UNL     1       6.681  -5.340  23.656  1.00  0.00     0.258 C 
HETATM   15  O   UNL     1       6.600  -5.403  24.802  1.00  0.00    -0.302 OA
ENDBRANCH  13  14
ENDBRANCH  10  12
ENDBRANCH   6   7
BRANCH   1  16
HETATM   16  C   UNL     1      10.861   1.433  23.032  1.00  0.00     0.169 C 
BRANCH  16  17
HETATM   17  O   UNL     1      11.615   1.438  24.017  1.00  0.00    -0.365 OA
HETATM   18  C   UNL     1      12.232   0.232  24.365  1.00  0.00     0.209 C 
ENDBRANCH  16  17
ENDBRANCH   1  16
TORSDOF 5
ENDMDL
MODEL 7
REMARK VINA RESULT:    -4.965      1.987      6.601
REMARK INTER + INTRA:          -5.827
REMARK INTER:                  -6.402
REMARK INTRA:                   0.575
REMARK UNBOUND:                 0.589
REMARK  5 active torsions:
REMARK  status: ('A' for Active; 'I' for Inactive)
REMARK    1  A    between atoms: O_2  and  C_3 
REMARK    2  A    between atoms: C_3  and  C_4 
REMARK    3  A    between atoms: C_9  and  C_10 
REMARK       I    between atoms: C_10  and  N_12 
REMARK    4  A    between atoms: C_14  and  C_18 
REMARK    5  A    between atoms: C_15  and  C_17 
ROOT
HETATM    1  C   UNL     1      10.187  -1.729  22.967  1.00  0.00     0.110 A 
HETATM    2  C   UNL     1       8.979  -2.194  22.914  1.00  0.00     0.154 A 
HETATM    3  C   UNL     1       7.365  -1.880  22.568  1.00  0.00     0.066 A 
HETATM    4  C   UNL     1       6.920  -1.228  21.584  1.00  0.00     0.019 C 
HETATM    5  O   UNL     1       9.349  -1.866  21.785  1.00  0.00    -0.327 OA
HETATM    6  C   UNL     1       7.906  -2.788  23.382  1.00  0.00     0.037 A 
ENDROOT
BRANCH   6   7
HETATM    7  C   UNL     1       7.561  -4.040  24.251  1.00  0.00     0.251 C 
HETATM    8  O   UNL     1       8.184  -5.028  24.020  1.00  0.00    -0.268 OA
HETATM    9  N   UNL     1       6.628  -3.899  25.243  1.00  0.00    -0.333 N 
HETATM   10  C   UNL     1       6.155  -4.848  25.935  1.00  0.00     0.091 C 
ATOM     11  HN  UNL     1       6.288  -2.958  25.440  1.00  0.00     0.168 HD
BRANCH  10  12
HETATM   12  C   UNL     1       5.096  -5.555  26.069  1.00  0.00     0.020 C 
HETATM   13  C   UNL     1       5.424  -6.392  27.079  1.00  0.00     0.042 C 
BRANCH  13  14
HETATM   14  C   UNL     1       6.644  -5.869  27.404  1.00  0.00     0.258 C 
HETATM   15  O   UNL     1       7.471  -5.969  28.198  1.00  0.00    -0.302 OA
ENDBRANCH  13  14
ENDBRANCH  10  12
ENDBRANCH   6   7
BRANCH   1  16
HETATM   16  C   UNL     1      11.188  -1.399  23.439  1.00  0.00     0.169 C 
BRANCH  16  17
HETATM   17  O   UNL     1      12.377  -1.045  23.462  1.00  0.00    -0.365 OA
HETATM   18  C   UNL     1      12.731  -0.030  24.358  1.00  0.00     0.209 C 
ENDBRANCH  16  17
ENDBRANCH   1  16
TORSDOF 5
ENDMDL
MODEL 8
REMARK VINA RESULT:    -4.815      1.662      2.843
REMARK INTER + INTRA:          -5.633
REMARK INTER:                  -6.169
REMARK INTRA:                   0.536
REMARK UNBOUND:                 0.589
REMARK  5 active torsions:
REMARK  status: ('A' for Active; 'I' for Inactive)
REMARK    1  A    between atoms: O_2  and  C_3 
REMARK    2  A    between atoms: C_3  and  C_4 
REMARK    3  A    between atoms: C_9  and  C_10 
REMARK       I    between atoms: C_10  and  N_12 
REMARK    4  A    between atoms: C_14  and  C_18 
REMARK    5  A    between atoms: C_15  and  C_17 
ROOT
HETATM    1  C   UNL     1       5.588  -4.795  24.203  1.00  0.00     0.110 A 
HETATM    2  C   UNL     1       6.624  -4.525  24.933  1.00  0.00     0.154 A 
HETATM    3  C   UNL     1       7.299  -4.527  26.472  1.00  0.00     0.066 A 
HETATM    4  C   UNL     1       7.210  -5.446  27.331  1.00  0.00     0.019 C 
HETATM    5  O   UNL     1       6.396  -5.736  24.964  1.00  0.00    -0.327 OA
HETATM    6  C   UNL     1       7.584  -3.768  25.412  1.00  0.00     0.037 A 
ENDROOT
BRANCH   6   7
HETATM    7  C   UNL     1       8.611  -2.721  24.874  1.00  0.00     0.251 C 
HETATM    8  O   UNL     1       9.089  -1.990  25.684  1.00  0.00    -0.268 OA
HETATM    9  N   UNL     1       8.934  -2.758  23.544  1.00  0.00    -0.333 N 
HETATM   10  C   UNL     1       9.644  -1.898  22.945  1.00  0.00     0.091 C 
ATOM     11  HN  UNL     1       8.574  -3.538  22.994  1.00  0.00     0.168 HD
BRANCH  10  12
HETATM   12  C   UNL     1       9.548  -0.918  22.126  1.00  0.00     0.020 C 
HETATM   13  C   UNL     1      10.835  -0.535  21.971  1.00  0.00     0.042 C 
BRANCH  13  14
HETATM   14  C   UNL     1      11.443  -1.521  22.695  1.00  0.00     0.258 C 
HETATM   15  O   UNL     1      12.487  -1.964  22.894  1.00  0.00    -0.302 OA
ENDBRANCH  13  14
ENDBRANCH  10  12
ENDBRANCH   6   7
BRANCH   1  16
HETATM   16  C   UNL     1       4.685  -4.598  23.510  1.00  0.00     0.169 C 
BRANCH  16  17
HETATM   17  O   UNL     1       3.687  -4.878  22.829  1.00  0.00    -0.365 OA
HETATM   18  C   UNL     1       2.732  -5.726  23.401  1.00  0.00     0.209 C 
ENDBRANCH  16  17
ENDBRANCH   1  16
TORSDOF 5
ENDMDL
MODEL 9
REMARK VINA RESULT:    -4.736     14.221     15.680
REMARK INTER + INTRA:          -5.531
REMARK INTER:                  -6.120
REMARK INTRA:                   0.589
REMARK UNBOUND:                 0.589
REMARK  5 active torsions:
REMARK  status: ('A' for Active; 'I' for Inactive)
REMARK    1  A    between atoms: O_2  and  C_3 
REMARK    2  A    between atoms: C_3  and  C_4 
REMARK    3  A    between atoms: C_9  and  C_10 
REMARK       I    between atoms: C_10  and  N_12 
REMARK    4  A    between atoms: C_14  and  C_18 
REMARK    5  A    between atoms: C_15  and  C_17 
ROOT
HETATM    1  C   UNL     1      22.935  -3.336  25.213  1.00  0.00     0.110 A 
HETATM    2  C   UNL     1      22.591  -2.355  24.440  1.00  0.00     0.154 A 
HETATM    3  C   UNL     1      21.402  -1.246  24.019  1.00  0.00     0.066 A 
HETATM    4  C   UNL     1      20.677  -0.583  24.811  1.00  0.00     0.019 C 
HETATM    5  O   UNL     1      22.621  -1.972  25.611  1.00  0.00    -0.327 OA
HETATM    6  C   UNL     1      22.399  -1.751  23.290  1.00  0.00     0.037 A 
ENDROOT
BRANCH   6   7
HETATM    7  C   UNL     1      23.141  -1.596  21.924  1.00  0.00     0.251 C 
HETATM    8  O   UNL     1      24.305  -1.349  21.982  1.00  0.00    -0.268 OA
HETATM    9  N   UNL     1      22.429  -1.816  20.775  1.00  0.00    -0.333 N 
HETATM   10  C   UNL     1      22.858  -1.603  19.603  1.00  0.00     0.091 C 
ATOM     11  HN  UNL     1      21.481  -2.180  20.871  1.00  0.00     0.168 HD
BRANCH  10  12
HETATM   12  C   UNL     1      22.738  -0.779  18.631  1.00  0.00     0.020 C 
HETATM   13  C   UNL     1      23.597  -1.276  17.713  1.00  0.00     0.042 C 
BRANCH  13  14
HETATM   14  C   UNL     1      23.963  -2.423  18.360  1.00  0.00     0.258 C 
HETATM   15  O   UNL     1      24.775  -3.239  18.334  1.00  0.00    -0.302 OA
ENDBRANCH  13  14
ENDBRANCH  10  12
ENDBRANCH   6   7
BRANCH   1  16
HETATM   16  C   UNL     1      23.237  -4.410  25.511  1.00  0.00     0.169 C 
BRANCH  16  17
HETATM   17  O   UNL     1      23.158  -5.647  25.551  1.00  0.00    -0.365 OA
HETATM   18  C   UNL     1      24.150  -6.380  24.889  1.00  0.00     0.209 C 
ENDBRANCH  16  17
ENDBRANCH   1  16
TORSDOF 5
ENDMDL
