REMARK  5 active torsions:
REMARK  status: ('A' for Active; 'I' for Inactive)
REMARK    1  A    between atoms: O_2  and  C_3 
REMARK    2  A    between atoms: C_3  and  C_4 
REMARK    3  A    between atoms: C_9  and  C_10 
REMARK       I    between atoms: C_10  and  N_12 
REMARK    4  A    between atoms: C_14  and  C_18 
REMARK    5  A    between atoms: C_15  and  C_17 
ROOT
HETATM    1  C   UNL     1       9.880  -2.473  23.841  1.00  0.00     0.110 A 
HETATM    2  C   UNL     1      10.255  -1.426  23.175  1.00  0.00     0.154 A 
HETATM    3  C   UNL     1      11.241  -0.067  23.130  1.00  0.00     0.066 A 
HETATM    4  C   UNL     1      12.452  -0.004  23.479  1.00  0.00     0.019 C 
HETATM    5  O   UNL     1      11.210  -2.191  23.322  1.00  0.00    -0.327 OA
HETATM    6  C   UNL     1      10.081  -0.305  22.515  1.00  0.00     0.037 A 
ENDROOT
BRANCH   6   7
HETATM    7  C   UNL     1       9.112   0.262  21.428  1.00  0.00     0.251 C 
HETATM    8  O   UNL     1       9.485   1.232  20.846  1.00  0.00    -0.268 OA
HETATM    9  N   UNL     1       7.952  -0.421  21.179  1.00  0.00    -0.333 N 
HETATM   10  C   UNL     1       7.018  -0.015  20.427  1.00  0.00     0.091 C 
ATOM     11  HN  UNL     1       7.831  -1.326  21.634  1.00  0.00     0.168 HD
BRANCH  10  12
HETATM   12  C   UNL     1       5.837   0.477  20.478  1.00  0.00     0.020 C 
HETATM   13  C   UNL     1       5.543   0.678  19.174  1.00  0.00     0.042 C 
BRANCH  13  14
HETATM   14  C   UNL     1       6.652   0.110  18.613  1.00  0.00     0.258 C 
HETATM   15  O   UNL     1       7.074  -0.191  17.585  1.00  0.00    -0.302 OA
ENDBRANCH  13  14
ENDBRANCH  10  12
ENDBRANCH   6   7
BRANCH   1  16
HETATM   16  C   UNL     1       9.173  -3.173  24.427  1.00  0.00     0.169 C 
BRANCH  16  17
HETATM   17  O   UNL     1       8.106  -3.556  24.930  1.00  0.00    -0.365 OA
HETATM   18  C   UNL     1       8.179  -4.298  26.114  1.00  0.00     0.209 C 
ENDBRANCH  16  17
ENDBRANCH   1  16
TORSDOF 5
