stable:False satoms:13 tatoms:24 sratio:0.5416666666666666
  -OEChem-07092417393D

 24 25  0     1  0  0  0  0  0999 V2000
    6.9777   -4.5818   26.3721 O   0  0  0  0  0  0  0  0  0  0  0  0
    8.3945   -4.0917   26.1396 S   0  0  0  0  0  0  0  0  0  0  0  0
    9.2987   -5.2245   26.1613 O   0  0  0  0  0  0  0  0  0  0  0  0
    8.7974   -3.1791   27.1604 O   0  5  0  0  0  0  0  0  0  0  0  0
    8.2884   -3.4521   24.7521 N   0  0  0  0  0  0  0  0  0  0  0  0
    8.9282   -2.6490   24.1523 C   0  0  3  0  0  0  0  0  0  0  0  0
    8.8195   -1.9404   23.0834 N   0  0  0  0  0  0  0  0  0  0  0  0
    9.8700   -1.5870   23.5362 C   0  0  0  0  0  0  0  0  0  0  0  0
   10.7660   -0.6573   23.2538 C   0  0  0  0  0  0  0  0  0  0  0  0
   12.6646    0.0344   23.9429 H   0  0  0  0  0  0  0  0  0  0  0  0
   12.2684   -0.6318   23.2127 C   0  0  0  0  0  0  0  0  0  0  0  0
   12.5588   -0.3012   22.2256 H   0  0  0  0  0  0  0  0  0  0  0  0
   12.5923   -1.6668   23.2680 H   0  0  0  0  0  0  0  0  0  0  0  0
    9.9661   -0.0085   22.4772 C   0  0  0  0  0  0  0  0  0  0  0  0
    8.4618   -0.0080   21.2975 C   0  0  2  0  0  0  0  0  0  0  0  0
    9.4062    0.7559   21.6177 N   0  3  0  0  0  0  0  0  0  0  0  0
    7.6989   -0.9316   20.8880 N   0  3  0  0  0  0  0  0  0  0  0  0
    6.8720    0.1242   20.9012 C   0  0  2  0  0  0  0  0  0  0  0  0
    7.3539   -0.2502   18.5813 H   0  0  0  0  0  0  0  0  0  0  0  0
    6.4594    0.2424   18.5524 N   0  0  0  0  0  0  0  0  0  0  0  0
    5.7675    0.5619   17.8808 H   0  0  0  0  0  0  0  0  0  0  0  0
    6.0219    0.5056   19.7998 C   0  3  0  0  0  0  0  0  0  0  0  0
    5.0788    0.9061   20.0333 H   0  0  0  0  0  0  0  0  0  0  0  0
    6.2730    0.7403   22.0070 F   0  0  0  0  0  0  0  0  0  0  0  0
 20 21  1  0  0  0  0
 19 20  1  0  0  0  0
 20 22  1  0  0  0  0
 22 23  1  0  0  0  0
 18 22  1  0  0  0  0
 17 18  1  0  0  0  0
 15 17  1  0  0  0  0
 15 18  1  0  0  0  0
 18 24  1  0  0  0  0
 15 16  1  0  0  0  0
 14 16  1  0  0  0  0
 11 12  1  0  0  0  0
  9 14  1  0  0  0  0
  7  8  1  0  0  0  0
  6  7  1  0  0  0  0
  9 11  1  0  0  0  0
 11 13  1  0  0  0  0
 10 11  1  0  0  0  0
  8  9  2  0  0  0  0
  6  8  1  0  0  0  0
  5  6  1  0  0  0  0
  2  5  1  0  0  0  0
  2  3  2  0  0  0  0
  1  2  2  0  0  0  0
  2  4  1  0  0  0  0
M  CHG  4   4  -1  16   1  17   1  22   1
M  END
> <Shapegauss>
-199.262909

$$$$
