REMARK  6 active torsions:
REMARK  status: ('A' for Active; 'I' for Inactive)
REMARK    1  A    between atoms: S_2  and  N_5 
REMARK    2  A    between atoms: N_5  and  C_7 
REMARK    3  A    between atoms: C_11  and  C_13 
REMARK    4  A    between atoms: C_13  and  N_15 
REMARK    5  A    between atoms: C_14  and  N_15 
REMARK    6  A    between atoms: C_19  and  C_23 
ROOT
HETATM    1  C   UNL     1       8.928  -2.649  24.152  1.00  0.00     0.145 A 
HETATM    2  N   UNL     1       8.819  -1.940  23.083  1.00  0.00    -0.336 N 
ATOM      3  HN  UNL     1       8.192  -1.773  22.296  1.00  0.00     0.168 HD
HETATM    4  C   UNL     1       9.870  -1.587  23.536  1.00  0.00     0.094 A 
HETATM    5  C   UNL     1      10.766  -0.657  23.254  1.00  0.00     0.031 C 
HETATM    6  C   UNL     1      12.268  -0.632  23.213  1.00  0.00     0.061 C 
ENDROOT
BRANCH   5   7
HETATM    7  C   UNL     1       9.966  -0.009  22.477  1.00  0.00    -0.031 C 
BRANCH   7   8
HETATM    8  N   UNL     1       9.406   0.756  21.618  1.00  0.00    -0.306 N 
ATOM      9  HN  UNL     1       9.650   1.692  21.295  1.00  0.00     0.177 HD
BRANCH   8  10
HETATM   10  C   UNL     1       8.462  -0.008  21.297  1.00  0.00     0.155 A 
HETATM   11  N   UNL     1       7.699  -0.932  20.888  1.00  0.00    -0.328 N 
HETATM   12  C   UNL     1       6.872   0.124  20.901  1.00  0.00     0.268 A 
ATOM     13  HN  UNL     1       7.708  -1.928  20.669  1.00  0.00     0.165 HD
HETATM   14  F   UNL     1       6.273   0.740  22.007  1.00  0.00    -0.204 F 
BRANCH  12  15
HETATM   15  C   UNL     1       6.022   0.506  19.800  1.00  0.00     0.128 C 
HETATM   16  N   UNL     1       6.459   0.242  18.552  1.00  0.00    -0.407 N 
HETATM   17  H   UNL     1       7.354  -0.250  18.581  1.00  0.00     0.155 HD
HETATM   18  H   UNL     1       5.768   0.562  17.881  1.00  0.00     0.155 HD
ENDBRANCH  12  15
ENDBRANCH   8  10
ENDBRANCH   7   8
ENDBRANCH   5   7
BRANCH   1  19
HETATM   19  N   UNL     1       8.288  -3.452  24.752  1.00  0.00    -0.249 N 
ATOM     20  HN  UNL     1       7.485  -3.792  24.222  1.00  0.00     0.183 HD
BRANCH  19  21
HETATM   21  S   UNL     1       8.395  -4.092  26.140  1.00  0.00     0.210 S 
HETATM   22  O   UNL     1       6.978  -4.582  26.372  1.00  0.00    -0.578 OA
HETATM   23  O   UNL     1       9.299  -5.224  26.161  1.00  0.00    -0.578 OA
HETATM   24  O   UNL     1       8.797  -3.179  27.160  1.00  0.00    -0.578 OA
ENDBRANCH  19  21
ENDBRANCH   1  19
TORSDOF 6
