MODEL 1
REMARK VINA RESULT:    -5.680      0.000      0.000
REMARK INTER + INTRA:          -8.163
REMARK INTER:                  -7.672
REMARK INTRA:                  -0.491
REMARK UNBOUND:                -0.491
REMARK  6 active torsions:
REMARK  status: ('A' for Active; 'I' for Inactive)
REMARK    1  A    between atoms: S_2  and  N_5 
REMARK    2  A    between atoms: N_5  and  C_7 
REMARK    3  A    between atoms: C_11  and  C_13 
REMARK    4  A    between atoms: C_13  and  N_15 
REMARK    5  A    between atoms: C_14  and  N_15 
REMARK    6  A    between atoms: C_19  and  C_23 
ROOT
HETATM    1  C   UNL     1       9.326  16.200   2.204  1.00  0.00     0.145 A 
HETATM    2  N   UNL     1       9.285  17.361   2.759  1.00  0.00    -0.336 N 
ATOM      3  HN  UNL     1       9.317  17.810   3.674  1.00  0.00     0.168 HD
HETATM    4  C   UNL     1       9.188  17.615   1.593  1.00  0.00     0.094 A 
HETATM    5  C   UNL     1       9.163  18.711   0.854  1.00  0.00     0.031 C 
HETATM    6  C   UNL     1       8.347  19.158  -0.325  1.00  0.00     0.061 C 
ENDROOT
BRANCH   5   7
HETATM    7  C   UNL     1       9.610  19.458   1.807  1.00  0.00    -0.031 C 
BRANCH   7   8
HETATM    8  N   UNL     1      10.001  20.405   2.572  1.00  0.00    -0.306 N 
ATOM      9  HN  UNL     1       9.492  21.185   2.987  1.00  0.00     0.177 HD
BRANCH   8  10
HETATM   10  C   UNL     1      11.210  20.073   2.651  1.00  0.00     0.155 A 
HETATM   11  N   UNL     1      12.390  19.640   2.496  1.00  0.00    -0.328 N 
HETATM   12  C   UNL     1      12.301  19.727   3.832  1.00  0.00     0.268 A 
ATOM     13  HN  UNL     1      13.046  19.373   1.762  1.00  0.00     0.165 HD
HETATM   14  F   UNL     1      12.349  20.878   4.629  1.00  0.00    -0.204 F 
BRANCH  12  15
HETATM   15  C   UNL     1      12.665  18.669   4.743  1.00  0.00     0.128 C 
HETATM   16  N   UNL     1      12.264  17.418   4.439  1.00  0.00    -0.407 N 
HETATM   17  H   UNL     1      11.773  17.405   3.543  1.00  0.00     0.155 HD
HETATM   18  H   UNL     1      12.586  16.780   5.160  1.00  0.00     0.155 HD
ENDBRANCH  12  15
ENDBRANCH   8  10
ENDBRANCH   7   8
ENDBRANCH   5   7
BRANCH   1  19
HETATM   19  N   UNL     1       9.463  15.065   2.532  1.00  0.00    -0.249 N 
ATOM     20  HN  UNL     1       9.270  14.410   1.774  1.00  0.00     0.183 HD
BRANCH  19  21
HETATM   21  S   UNL     1       9.864  14.363   3.834  1.00  0.00     0.210 S 
HETATM   22  O   UNL     1       8.975  15.053   4.851  1.00  0.00    -0.578 OA
HETATM   23  O   UNL     1       9.559  12.947   3.817  1.00  0.00    -0.578 OA
HETATM   24  O   UNL     1      11.243  14.520   4.166  1.00  0.00    -0.578 OA
ENDBRANCH  19  21
ENDBRANCH   1  19
TORSDOF 6
ENDMDL
MODEL 2
REMARK VINA RESULT:    -5.638      7.503      9.933
REMARK INTER + INTRA:          -8.106
REMARK INTER:                  -8.039
REMARK INTRA:                  -0.067
REMARK UNBOUND:                -0.491
REMARK  6 active torsions:
REMARK  status: ('A' for Active; 'I' for Inactive)
REMARK    1  A    between atoms: S_2  and  N_5 
REMARK    2  A    between atoms: N_5  and  C_7 
REMARK    3  A    between atoms: C_11  and  C_13 
REMARK    4  A    between atoms: C_13  and  N_15 
REMARK    5  A    between atoms: C_14  and  N_15 
REMARK    6  A    between atoms: C_19  and  C_23 
ROOT
HETATM    1  C   UNL     1       8.571  12.456   3.501  1.00  0.00     0.145 A 
HETATM    2  N   UNL     1       8.248  11.210   3.526  1.00  0.00    -0.336 N 
ATOM      3  HN  UNL     1       8.656  10.278   3.457  1.00  0.00     0.168 HD
HETATM    4  C   UNL     1       7.197  11.766   3.677  1.00  0.00     0.094 A 
HETATM    5  C   UNL     1       5.955  11.401   3.942  1.00  0.00     0.031 C 
HETATM    6  C   UNL     1       4.609  11.822   3.422  1.00  0.00     0.061 C 
ENDROOT
BRANCH   5   7
HETATM    7  C   UNL     1       6.298  10.213   4.311  1.00  0.00    -0.031 C 
BRANCH   7   8
HETATM    8  N   UNL     1       6.506   9.103   4.912  1.00  0.00    -0.306 N 
ATOM      9  HN  UNL     1       7.365   8.686   5.271  1.00  0.00     0.177 HD
BRANCH   8  10
HETATM   10  C   UNL     1       5.320   8.689   4.923  1.00  0.00     0.155 A 
HETATM   11  N   UNL     1       4.111   8.398   5.159  1.00  0.00    -0.328 N 
HETATM   12  C   UNL     1       4.468   7.426   4.306  1.00  0.00     0.268 A 
ATOM     13  HN  UNL     1       3.308   8.723   5.698  1.00  0.00     0.165 HD
HETATM   14  F   UNL     1       4.644   7.514   2.919  1.00  0.00    -0.204 F 
BRANCH  12  15
HETATM   15  C   UNL     1       4.233   6.021   4.528  1.00  0.00     0.128 C 
HETATM   16  N   UNL     1       5.293   5.253   4.850  1.00  0.00    -0.407 N 
HETATM   17  H   UNL     1       6.138   5.822   4.931  1.00  0.00     0.155 HD
HETATM   18  H   UNL     1       4.985   4.294   4.976  1.00  0.00     0.155 HD
ENDBRANCH  12  15
ENDBRANCH   8  10
ENDBRANCH   7   8
ENDBRANCH   5   7
BRANCH   1  19
HETATM   19  N   UNL     1       9.558  13.114   3.415  1.00  0.00    -0.249 N 
ATOM     20  HN  UNL     1      10.410  12.553   3.444  1.00  0.00     0.183 HD
BRANCH  19  21
HETATM   21  S   UNL     1       9.841  14.613   3.269  1.00  0.00     0.210 S 
HETATM   22  O   UNL     1       9.367  14.888   1.854  1.00  0.00    -0.578 OA
HETATM   23  O   UNL     1       9.068  15.416   4.194  1.00  0.00    -0.578 OA
HETATM   24  O   UNL     1      11.218  14.951   3.424  1.00  0.00    -0.578 OA
ENDBRANCH  19  21
ENDBRANCH   1  19
TORSDOF 6
ENDMDL
MODEL 3
REMARK VINA RESULT:    -5.575     26.410     27.876
REMARK INTER + INTRA:          -8.022
REMARK INTER:                  -7.497
REMARK INTRA:                  -0.525
REMARK UNBOUND:                -0.491
REMARK  6 active torsions:
REMARK  status: ('A' for Active; 'I' for Inactive)
REMARK    1  A    between atoms: S_2  and  N_5 
REMARK    2  A    between atoms: N_5  and  C_7 
REMARK    3  A    between atoms: C_11  and  C_13 
REMARK    4  A    between atoms: C_13  and  N_15 
REMARK    5  A    between atoms: C_14  and  N_15 
REMARK    6  A    between atoms: C_19  and  C_23 
ROOT
HETATM    1  C   UNL     1       8.083  -0.045  20.212  1.00  0.00     0.145 A 
HETATM    2  N   UNL     1       7.804  -0.803  21.214  1.00  0.00    -0.336 N 
ATOM      3  HN  UNL     1       7.033  -1.328  21.629  1.00  0.00     0.168 HD
HETATM    4  C   UNL     1       8.960  -0.544  21.385  1.00  0.00     0.094 A 
HETATM    5  C   UNL     1       9.909  -0.922  22.223  1.00  0.00     0.031 C 
HETATM    6  C   UNL     1      10.993  -0.197  22.970  1.00  0.00     0.061 C 
ENDROOT
BRANCH   5   7
HETATM    7  C   UNL     1       9.245  -1.947  22.638  1.00  0.00    -0.031 C 
BRANCH   7   8
HETATM    8  N   UNL     1       8.838  -3.076  23.080  1.00  0.00    -0.306 N 
ATOM      9  HN  UNL     1       8.657  -3.958  22.601  1.00  0.00     0.177 HD
BRANCH   8  10
HETATM   10  C   UNL     1       8.731  -2.758  24.291  1.00  0.00     0.155 A 
HETATM   11  N   UNL     1       8.818  -2.277  25.458  1.00  0.00    -0.328 N 
HETATM   12  C   UNL     1       8.208  -3.449  25.688  1.00  0.00     0.268 A 
ATOM     13  HN  UNL     1       9.163  -1.454  25.952  1.00  0.00     0.165 HD
HETATM   14  F   UNL     1       6.872  -3.791  25.445  1.00  0.00    -0.204 F 
BRANCH  12  15
HETATM   15  C   UNL     1       8.624  -4.401  26.688  1.00  0.00     0.128 C 
HETATM   16  N   UNL     1       8.573  -5.710  26.365  1.00  0.00    -0.407 N 
HETATM   17  H   UNL     1       8.269  -5.830  25.397  1.00  0.00     0.155 HD
HETATM   18  H   UNL     1       8.890  -6.262  27.156  1.00  0.00     0.155 HD
ENDBRANCH  12  15
ENDBRANCH   8  10
ENDBRANCH   7   8
ENDBRANCH   5   7
BRANCH   1  19
HETATM   19  N   UNL     1       7.538   0.379  19.243  1.00  0.00    -0.249 N 
ATOM     20  HN  UNL     1       8.135   1.001  18.696  1.00  0.00     0.183 HD
BRANCH  19  21
HETATM   21  S   UNL     1       6.145   0.204  18.629  1.00  0.00     0.210 S 
HETATM   22  O   UNL     1       5.248   0.312  19.847  1.00  0.00    -0.578 OA
HETATM   23  O   UNL     1       5.813   1.262  17.698  1.00  0.00    -0.578 OA
HETATM   24  O   UNL     1       5.966  -1.048  17.968  1.00  0.00    -0.578 OA
ENDBRANCH  19  21
ENDBRANCH   1  19
TORSDOF 6
ENDMDL
MODEL 4
REMARK VINA RESULT:    -5.575     27.301     28.819
REMARK INTER + INTRA:          -8.021
REMARK INTER:                  -7.904
REMARK INTRA:                  -0.117
REMARK UNBOUND:                -0.491
REMARK  6 active torsions:
REMARK  status: ('A' for Active; 'I' for Inactive)
REMARK    1  A    between atoms: S_2  and  N_5 
REMARK    2  A    between atoms: N_5  and  C_7 
REMARK    3  A    between atoms: C_11  and  C_13 
REMARK    4  A    between atoms: C_13  and  N_15 
REMARK    5  A    between atoms: C_14  and  N_15 
REMARK    6  A    between atoms: C_19  and  C_23 
ROOT
HETATM    1  C   UNL     1       6.371  -1.019  20.909  1.00  0.00     0.145 A 
HETATM    2  N   UNL     1       6.218  -1.905  21.830  1.00  0.00    -0.336 N 
ATOM      3  HN  UNL     1       5.496  -2.451  22.301  1.00  0.00     0.168 HD
HETATM    4  C   UNL     1       7.402  -1.724  21.822  1.00  0.00     0.094 A 
HETATM    5  C   UNL     1       8.453  -2.265  22.413  1.00  0.00     0.031 C 
HETATM    6  C   UNL     1       9.698  -1.708  23.045  1.00  0.00     0.061 C 
ENDROOT
BRANCH   5   7
HETATM    7  C   UNL     1       7.800  -3.310  22.795  1.00  0.00    -0.031 C 
BRANCH   7   8
HETATM    8  N   UNL     1       7.405  -4.464  23.183  1.00  0.00    -0.306 N 
ATOM      9  HN  UNL     1       7.466  -5.378  22.736  1.00  0.00     0.177 HD
BRANCH   8  10
HETATM   10  C   UNL     1       6.920  -4.116  24.288  1.00  0.00     0.155 A 
HETATM   11  N   UNL     1       6.458  -3.526  25.309  1.00  0.00    -0.328 N 
HETATM   12  C   UNL     1       6.834  -4.708  25.819  1.00  0.00     0.268 A 
ATOM     13  HN  UNL     1       6.034  -2.641  25.589  1.00  0.00     0.165 HD
HETATM   14  F   UNL     1       6.194  -5.948  25.693  1.00  0.00    -0.204 F 
BRANCH  12  15
HETATM   15  C   UNL     1       7.641  -4.864  27.005  1.00  0.00     0.128 C 
HETATM   16  N   UNL     1       7.893  -6.119  27.429  1.00  0.00    -0.407 N 
HETATM   17  H   UNL     1       7.485  -6.803  26.789  1.00  0.00     0.155 HD
HETATM   18  H   UNL     1       8.466  -6.080  28.266  1.00  0.00     0.155 HD
ENDBRANCH  12  15
ENDBRANCH   8  10
ENDBRANCH   7   8
ENDBRANCH   5   7
BRANCH   1  19
HETATM   19  N   UNL     1       5.698  -0.431  20.124  1.00  0.00    -0.249 N 
ATOM     20  HN  UNL     1       4.706  -0.449  20.363  1.00  0.00     0.183 HD
BRANCH  19  21
HETATM   21  S   UNL     1       5.982   0.347  18.834  1.00  0.00     0.210 S 
HETATM   22  O   UNL     1       7.484   0.546  18.910  1.00  0.00    -0.578 OA
HETATM   23  O   UNL     1       5.663  -0.416  17.645  1.00  0.00    -0.578 OA
HETATM   24  O   UNL     1       5.301   1.598  18.760  1.00  0.00    -0.578 OA
ENDBRANCH  19  21
ENDBRANCH   1  19
TORSDOF 6
ENDMDL
MODEL 5
REMARK VINA RESULT:    -5.466     30.072     31.388
REMARK INTER + INTRA:          -7.874
REMARK INTER:                  -7.754
REMARK INTRA:                  -0.120
REMARK UNBOUND:                -0.491
REMARK  6 active torsions:
REMARK  status: ('A' for Active; 'I' for Inactive)
REMARK    1  A    between atoms: S_2  and  N_5 
REMARK    2  A    between atoms: N_5  and  C_7 
REMARK    3  A    between atoms: C_11  and  C_13 
REMARK    4  A    between atoms: C_13  and  N_15 
REMARK    5  A    between atoms: C_14  and  N_15 
REMARK    6  A    between atoms: C_19  and  C_23 
ROOT
HETATM    1  C   UNL     1       7.529  -5.463  26.873  1.00  0.00     0.145 A 
HETATM    2  N   UNL     1       7.469  -4.237  26.484  1.00  0.00    -0.336 N 
ATOM      3  HN  UNL     1       7.338  -3.291  26.841  1.00  0.00     0.168 HD
HETATM    4  C   UNL     1       7.655  -4.837  25.464  1.00  0.00     0.094 A 
HETATM    5  C   UNL     1       7.893  -4.522  24.202  1.00  0.00     0.031 C 
HETATM    6  C   UNL     1       7.401  -5.049  22.884  1.00  0.00     0.061 C 
ENDROOT
BRANCH   5   7
HETATM    7  C   UNL     1       8.182  -3.296  24.479  1.00  0.00    -0.031 C 
BRANCH   7   8
HETATM    8  N   UNL     1       8.722  -2.183  24.805  1.00  0.00    -0.306 N 
ATOM      9  HN  UNL     1       8.546  -1.558  25.591  1.00  0.00     0.177 HD
BRANCH   8  10
HETATM   10  C   UNL     1       9.537  -2.102  23.852  1.00  0.00     0.155 A 
HETATM   11  N   UNL     1      10.314  -2.273  22.868  1.00  0.00    -0.328 N 
HETATM   12  C   UNL     1      10.801  -1.148  23.411  1.00  0.00     0.268 A 
ATOM     13  HN  UNL     1      10.479  -2.913  22.091  1.00  0.00     0.165 HD
HETATM   14  F   UNL     1      10.270   0.147  23.341  1.00  0.00    -0.204 F 
BRANCH  12  15
HETATM   15  C   UNL     1      12.193  -0.926  23.715  1.00  0.00     0.128 C 
HETATM   16  N   UNL     1      13.103  -1.677  23.061  1.00  0.00    -0.407 N 
HETATM   17  H   UNL     1      12.643  -2.293  22.387  1.00  0.00     0.155 HD
HETATM   18  H   UNL     1      14.034  -1.419  23.370  1.00  0.00     0.155 HD
ENDBRANCH  12  15
ENDBRANCH   8  10
ENDBRANCH   7   8
ENDBRANCH   5   7
BRANCH   1  19
HETATM   19  N   UNL     1       7.488  -6.071  27.895  1.00  0.00    -0.249 N 
ATOM     20  HN  UNL     1       8.371  -6.533  28.114  1.00  0.00     0.183 HD
BRANCH  19  21
HETATM   21  S   UNL     1       6.411  -6.319  28.956  1.00  0.00     0.210 S 
HETATM   22  O   UNL     1       6.789  -7.693  29.476  1.00  0.00    -0.578 OA
HETATM   23  O   UNL     1       6.474  -5.364  30.044  1.00  0.00    -0.578 OA
HETATM   24  O   UNL     1       5.083  -6.314  28.433  1.00  0.00    -0.578 OA
ENDBRANCH  19  21
ENDBRANCH   1  19
TORSDOF 6
ENDMDL
MODEL 6
REMARK VINA RESULT:    -5.331     29.337     30.770
REMARK INTER + INTRA:          -7.692
REMARK INTER:                  -7.341
REMARK INTRA:                  -0.352
REMARK UNBOUND:                -0.491
REMARK  6 active torsions:
REMARK  status: ('A' for Active; 'I' for Inactive)
REMARK    1  A    between atoms: S_2  and  N_5 
REMARK    2  A    between atoms: N_5  and  C_7 
REMARK    3  A    between atoms: C_11  and  C_13 
REMARK    4  A    between atoms: C_13  and  N_15 
REMARK    5  A    between atoms: C_14  and  N_15 
REMARK    6  A    between atoms: C_19  and  C_23 
ROOT
HETATM    1  C   UNL     1       7.360  -5.497  26.251  1.00  0.00     0.145 A 
HETATM    2  N   UNL     1       7.234  -4.379  25.625  1.00  0.00    -0.336 N 
ATOM      3  HN  UNL     1       7.084  -3.384  25.791  1.00  0.00     0.168 HD
HETATM    4  C   UNL     1       7.394  -5.169  24.739  1.00  0.00     0.094 A 
HETATM    5  C   UNL     1       7.559  -5.111  23.429  1.00  0.00     0.031 C 
HETATM    6  C   UNL     1       7.025  -5.910  22.273  1.00  0.00     0.061 C 
ENDROOT
BRANCH   5   7
HETATM    7  C   UNL     1       7.814  -3.847  23.436  1.00  0.00    -0.031 C 
BRANCH   7   8
HETATM    8  N   UNL     1       8.295  -2.669  23.304  1.00  0.00    -0.306 N 
ATOM      9  HN  UNL     1       9.171  -2.263  23.633  1.00  0.00     0.177 HD
BRANCH   8  10
HETATM   10  C   UNL     1       7.350  -2.170  22.644  1.00  0.00     0.155 A 
HETATM   11  N   UNL     1       6.329  -1.913  21.940  1.00  0.00    -0.328 N 
HETATM   12  C   UNL     1       7.052  -0.792  21.799  1.00  0.00     0.268 A 
ATOM     13  HN  UNL     1       5.447  -2.328  21.643  1.00  0.00     0.165 HD
HETATM   14  F   UNL     1       7.229   0.245  22.723  1.00  0.00    -0.204 F 
BRANCH  12  15
HETATM   15  C   UNL     1       7.352  -0.170  20.532  1.00  0.00     0.128 C 
HETATM   16  N   UNL     1       8.622  -0.241  20.086  1.00  0.00    -0.407 N 
HETATM   17  H   UNL     1       9.199  -0.787  20.728  1.00  0.00     0.155 HD
HETATM   18  H   UNL     1       8.690   0.234  19.192  1.00  0.00     0.155 HD
ENDBRANCH  12  15
ENDBRANCH   8  10
ENDBRANCH   7   8
ENDBRANCH   5   7
BRANCH   1  19
HETATM   19  N   UNL     1       7.392  -5.885  27.375  1.00  0.00    -0.249 N 
ATOM     20  HN  UNL     1       8.334  -6.128  27.681  1.00  0.00     0.183 HD
BRANCH  19  21
HETATM   21  S   UNL     1       6.339  -6.103  28.467  1.00  0.00     0.210 S 
HETATM   22  O   UNL     1       5.053  -5.765  27.737  1.00  0.00    -0.578 OA
HETATM   23  O   UNL     1       6.284  -7.479  28.917  1.00  0.00    -0.578 OA
HETATM   24  O   UNL     1       6.519  -5.265  29.608  1.00  0.00    -0.578 OA
ENDBRANCH  19  21
ENDBRANCH   1  19
TORSDOF 6
ENDMDL
MODEL 7
REMARK VINA RESULT:    -5.327     30.561     31.914
REMARK INTER + INTRA:          -7.686
REMARK INTER:                  -7.263
REMARK INTRA:                  -0.423
REMARK UNBOUND:                -0.491
REMARK  6 active torsions:
REMARK  status: ('A' for Active; 'I' for Inactive)
REMARK    1  A    between atoms: S_2  and  N_5 
REMARK    2  A    between atoms: N_5  and  C_7 
REMARK    3  A    between atoms: C_11  and  C_13 
REMARK    4  A    between atoms: C_13  and  N_15 
REMARK    5  A    between atoms: C_14  and  N_15 
REMARK    6  A    between atoms: C_19  and  C_23 
ROOT
HETATM    1  C   UNL     1       5.899  -6.147  26.864  1.00  0.00     0.145 A 
HETATM    2  N   UNL     1       6.917  -5.456  26.486  1.00  0.00    -0.336 N 
ATOM      3  HN  UNL     1       7.864  -5.205  26.772  1.00  0.00     0.168 HD
HETATM    4  C   UNL     1       6.125  -5.275  25.606  1.00  0.00     0.094 A 
HETATM    5  C   UNL     1       6.129  -4.678  24.427  1.00  0.00     0.031 C 
HETATM    6  C   UNL     1       5.156  -3.791  23.702  1.00  0.00     0.061 C 
ENDROOT
BRANCH   5   7
HETATM    7  C   UNL     1       7.416  -4.608  24.377  1.00  0.00    -0.031 C 
BRANCH   7   8
HETATM    8  N   UNL     1       8.650  -4.517  24.055  1.00  0.00    -0.306 N 
ATOM      9  HN  UNL     1       9.429  -5.160  24.195  1.00  0.00     0.177 HD
BRANCH   8  10
HETATM   10  C   UNL     1       8.602  -3.386  23.509  1.00  0.00     0.155 A 
HETATM   11  N   UNL     1       8.379  -2.357  22.806  1.00  0.00    -0.328 N 
HETATM   12  C   UNL     1       9.593  -2.090  23.310  1.00  0.00     0.268 A 
ATOM     13  HN  UNL     1       7.669  -1.954  22.195  1.00  0.00     0.165 HD
HETATM   14  F   UNL     1       9.920  -1.680  24.608  1.00  0.00    -0.204 F 
BRANCH  12  15
HETATM   15  C   UNL     1      10.723  -1.656  22.524  1.00  0.00     0.128 C 
HETATM   16  N   UNL     1      10.575  -0.542  21.779  1.00  0.00    -0.407 N 
HETATM   17  H   UNL     1       9.651  -0.132  21.925  1.00  0.00     0.155 HD
HETATM   18  H   UNL     1      11.440  -0.356  21.282  1.00  0.00     0.155 HD
ENDBRANCH  12  15
ENDBRANCH   8  10
ENDBRANCH   7   8
ENDBRANCH   5   7
BRANCH   1  19
HETATM   19  N   UNL     1       5.604  -6.873  27.759  1.00  0.00    -0.249 N 
ATOM     20  HN  UNL     1       4.989  -7.632  27.464  1.00  0.00     0.183 HD
BRANCH  19  21
HETATM   21  S   UNL     1       5.938  -6.928  29.253  1.00  0.00     0.210 S 
HETATM   22  O   UNL     1       6.434  -5.519  29.518  1.00  0.00    -0.578 OA
HETATM   23  O   UNL     1       4.771  -7.184  30.073  1.00  0.00    -0.578 OA
HETATM   24  O   UNL     1       6.936  -7.895  29.580  1.00  0.00    -0.578 OA
ENDBRANCH  19  21
ENDBRANCH   1  19
TORSDOF 6
ENDMDL
MODEL 8
REMARK VINA RESULT:    -5.304     26.401     27.898
REMARK INTER + INTRA:          -7.656
REMARK INTER:                  -7.423
REMARK INTRA:                  -0.233
REMARK UNBOUND:                -0.491
REMARK  6 active torsions:
REMARK  status: ('A' for Active; 'I' for Inactive)
REMARK    1  A    between atoms: S_2  and  N_5 
REMARK    2  A    between atoms: N_5  and  C_7 
REMARK    3  A    between atoms: C_11  and  C_13 
REMARK    4  A    between atoms: C_13  and  N_15 
REMARK    5  A    between atoms: C_14  and  N_15 
REMARK    6  A    between atoms: C_19  and  C_23 
ROOT
HETATM    1  C   UNL     1       8.649  -3.169  23.880  1.00  0.00     0.145 A 
HETATM    2  N   UNL     1       8.984  -2.788  22.696  1.00  0.00    -0.336 N 
ATOM      3  HN  UNL     1       8.999  -3.110  21.728  1.00  0.00     0.168 HD
HETATM    4  C   UNL     1       9.268  -1.843  23.375  1.00  0.00     0.094 A 
HETATM    5  C   UNL     1       9.694  -0.610  23.162  1.00  0.00     0.031 C 
HETATM    6  C   UNL     1      10.720   0.268  23.821  1.00  0.00     0.061 C 
ENDROOT
BRANCH   5   7
HETATM    7  C   UNL     1       9.403  -0.641  21.906  1.00  0.00    -0.031 C 
BRANCH   7   8
HETATM    8  N   UNL     1       9.281  -0.450  20.647  1.00  0.00    -0.306 N 
ATOM      9  HN  UNL     1       9.890  -0.703  19.869  1.00  0.00     0.177 HD
BRANCH   8  10
HETATM   10  C   UNL     1       8.176   0.146  20.669  1.00  0.00     0.155 A 
HETATM   11  N   UNL     1       7.094   0.741  20.948  1.00  0.00    -0.328 N 
HETATM   12  C   UNL     1       6.841   0.268  19.718  1.00  0.00     0.268 A 
ATOM     13  HN  UNL     1       6.655   1.281  21.694  1.00  0.00     0.165 HD
HETATM   14  F   UNL     1       7.313   0.752  18.492  1.00  0.00    -0.204 F 
BRANCH  12  15
HETATM   15  C   UNL     1       5.654  -0.468  19.357  1.00  0.00     0.128 C 
HETATM   16  N   UNL     1       5.594  -0.985  18.113  1.00  0.00    -0.407 N 
HETATM   17  H   UNL     1       6.460  -0.800  17.604  1.00  0.00     0.155 HD
HETATM   18  H   UNL     1       4.711  -1.473  17.996  1.00  0.00     0.155 HD
ENDBRANCH  12  15
ENDBRANCH   8  10
ENDBRANCH   7   8
ENDBRANCH   5   7
BRANCH   1  19
HETATM   19  N   UNL     1       8.145  -4.113  24.398  1.00  0.00    -0.249 N 
ATOM     20  HN  UNL     1       8.292  -4.976  23.874  1.00  0.00     0.183 HD
BRANCH  19  21
HETATM   21  S   UNL     1       7.323  -4.328  25.673  1.00  0.00     0.210 S 
HETATM   22  O   UNL     1       8.358  -4.097  26.758  1.00  0.00    -0.578 OA
HETATM   23  O   UNL     1       6.258  -3.356  25.817  1.00  0.00    -0.578 OA
HETATM   24  O   UNL     1       6.755  -5.633  25.773  1.00  0.00    -0.578 OA
ENDBRANCH  19  21
ENDBRANCH   1  19
TORSDOF 6
ENDMDL
MODEL 9
REMARK VINA RESULT:    -5.209      6.072      8.409
REMARK INTER + INTRA:          -7.527
REMARK INTER:                  -7.064
REMARK INTRA:                  -0.463
REMARK UNBOUND:                -0.491
REMARK  6 active torsions:
REMARK  status: ('A' for Active; 'I' for Inactive)
REMARK    1  A    between atoms: S_2  and  N_5 
REMARK    2  A    between atoms: N_5  and  C_7 
REMARK    3  A    between atoms: C_11  and  C_13 
REMARK    4  A    between atoms: C_13  and  N_15 
REMARK    5  A    between atoms: C_14  and  N_15 
REMARK    6  A    between atoms: C_19  and  C_23 
ROOT
HETATM    1  C   UNL     1       9.227  14.439   3.136  1.00  0.00     0.145 A 
HETATM    2  N   UNL     1       9.260  13.157   3.248  1.00  0.00    -0.336 N 
ATOM      3  HN  UNL     1       9.854  12.400   3.586  1.00  0.00     0.168 HD
HETATM    4  C   UNL     1       8.197  13.356   2.733  1.00  0.00     0.094 A 
HETATM    5  C   UNL     1       7.145  12.627   2.405  1.00  0.00     0.031 C 
HETATM    6  C   UNL     1       6.241  12.578   1.205  1.00  0.00     0.061 C 
ENDROOT
BRANCH   5   7
HETATM    7  C   UNL     1       7.512  11.626   3.130  1.00  0.00    -0.031 C 
BRANCH   7   8
HETATM    8  N   UNL     1       7.617  10.545   3.806  1.00  0.00    -0.306 N 
ATOM      9  HN  UNL     1       8.428   9.964   4.018  1.00  0.00     0.177 HD
BRANCH   8  10
HETATM   10  C   UNL     1       6.408  10.424   4.126  1.00  0.00     0.155 A 
HETATM   11  N   UNL     1       5.232  10.517   4.585  1.00  0.00    -0.328 N 
HETATM   12  C   UNL     1       5.303   9.216   4.267  1.00  0.00     0.268 A 
ATOM     13  HN  UNL     1       4.588  11.201   4.980  1.00  0.00     0.165 HD
HETATM   14  F   UNL     1       5.240   8.632   2.995  1.00  0.00    -0.204 F 
BRANCH  12  15
HETATM   15  C   UNL     1       4.929   8.139   5.151  1.00  0.00     0.128 C 
HETATM   16  N   UNL     1       5.582   6.967   5.019  1.00  0.00    -0.407 N 
HETATM   17  H   UNL     1       6.305   7.037   4.301  1.00  0.00     0.155 HD
HETATM   18  H   UNL     1       5.220   6.305   5.698  1.00  0.00     0.155 HD
ENDBRANCH  12  15
ENDBRANCH   8  10
ENDBRANCH   7   8
ENDBRANCH   5   7
BRANCH   1  19
HETATM   19  N   UNL     1       9.905  15.372   3.425  1.00  0.00    -0.249 N 
ATOM     20  HN  UNL     1       9.852  16.126   2.739  1.00  0.00     0.183 HD
BRANCH  19  21
HETATM   21  S   UNL     1      10.841  15.699   4.593  1.00  0.00     0.210 S 
HETATM   22  O   UNL     1       9.954  16.555   5.478  1.00  0.00    -0.578 OA
HETATM   23  O   UNL     1      11.246  14.518   5.327  1.00  0.00    -0.578 OA
HETATM   24  O   UNL     1      12.016  16.408   4.202  1.00  0.00    -0.578 OA
ENDBRANCH  19  21
ENDBRANCH   1  19
TORSDOF 6
ENDMDL
