stable:False satoms:4 tatoms:24 sratio:0.16666666666666666
  -OEChem-07092417453D

 24 24  0     1  0  0  0  0  0999 V2000
    6.6260   -4.8388   26.4147 C   0  0  0  0  0  0  0  0  0  0  0  0
    8.2096   -4.3365   26.1069 S   0  0  0  0  0  0  0  0  0  0  0  0
    9.0853   -5.4911   26.0579 O   0  0  0  0  0  0  0  0  0  0  0  0
    8.5992   -3.4421   27.1651 O   0  0  0  0  0  0  0  0  0  0  0  0
    8.1685   -3.6063   24.6636 N   0  0  0  0  0  0  0  0  0  0  0  0
    8.9384   -2.8733   24.1450 C   0  0  0  0  0  0  0  0  0  0  0  0
    9.4018   -1.9959   23.5589 C   0  0  0  0  0  0  0  0  0  0  0  0
   10.2916   -1.1070   23.2664 C   0  0  2  0  0  0  0  0  0  0  0  0
   11.0188   -0.0413   24.2623 C   0  0  0  0  0  0  0  0  0  0  0  0
   12.1073    0.2764   24.2157 C   0  0  0  0  0  0  0  0  0  0  0  0
   13.1757   -0.1465   23.5350 C   0  0  0  0  0  0  0  0  0  0  0  0
   12.7346   -1.2624   22.6908 C   0  0  0  0  0  0  0  0  0  0  0  0
   11.8333   -1.7020   22.5252 C   0  0  0  0  0  0  0  0  0  0  0  0
    9.6894   -0.5750   22.3362 C   0  0  0  0  0  0  0  0  0  0  0  0
    9.0351    0.0063   21.3739 C   0  0  0  0  0  0  0  0  0  0  0  0
    9.5385    0.9257   20.9180 O   0  0  0  0  0  0  0  0  0  0  0  0
    7.8647   -0.5909   21.1212 N   0  0  0  0  0  0  0  0  0  0  0  0
    7.1723   -0.0876   20.1728 C   0  0  0  0  0  0  0  0  0  0  0  0
    7.2032    0.0573   18.8748 C   0  0  0  0  0  0  0  0  0  0  0  0
    6.7593    0.3653   17.7663 N   0  0  0  0  0  0  0  0  0  0  0  0
    5.6699    0.8967   18.2602 C   0  0  0  0  0  0  0  0  0  0  0  0
    5.2710    0.9883   19.4084 C   0  0  0  0  0  0  0  0  0  0  0  0
    5.8088    0.5785   20.5919 C   0  0  0  0  0  0  0  0  0  0  0  0
    5.3818    0.7120   21.8655 C   0  0  0  0  0  0  0  0  0  0  0  0
 20 21  2  0  0  0  0
 19 20  1  0  0  0  0
 21 22  1  0  0  0  0
 18 19  2  0  0  0  0
 22 23  2  0  0  0  0
 18 23  1  0  0  0  0
 17 18  1  0  0  0  0
 23 24  1  0  0  0  0
 15 16  2  0  0  0  0
 15 17  1  0  0  0  0
 14 15  1  0  0  0  0
  8 14  1  0  0  0  0
 12 13  2  0  0  0  0
 11 12  1  0  0  0  0
  7  8  1  0  0  0  0
  8  9  1  0  0  0  0
 10 11  1  0  0  0  0
  6  7  3  0  0  0  0
  5  6  1  0  0  0  0
  9 10  2  0  0  0  0
  2  5  1  0  0  0  0
  2  3  2  0  0  0  0
  1  2  1  0  0  0  0
  2  4  2  0  0  0  0
M  END
> <Shapegauss>
-287.028961

$$$$
