stable:False satoms:4 tatoms:24 sratio:0.16666666666666666
  -OEChem-08062413523D

 45 45  0     1  0  0  0  0  0999 V2000
    6.6278   -5.4023   26.0111 C   0  0  0  0  0  0  0  0  0  0  0  0
    8.2130   -4.8589   25.7945 S   0  0  0  0  0  0  0  0  0  0  0  0
    9.1034   -5.9959   25.6647 O   0  0  0  0  0  0  0  0  0  0  0  0
    8.5634   -4.0616   26.9404 O   0  0  0  0  0  0  0  0  0  0  0  0
    8.2018   -4.0000   24.4234 N   0  0  0  0  0  0  0  0  0  0  0  0
    8.9765   -3.2154   23.9954 C   0  0  0  0  0  0  0  0  0  0  0  0
    9.4449   -2.2836   23.5050 C   0  0  0  0  0  0  0  0  0  0  0  0
   10.3316   -1.3633   23.3197 C   0  0  2  0  0  0  0  0  0  0  0  0
   11.0190   -0.3865   24.4285 C   0  0  0  0  0  0  0  0  0  0  0  0
   12.1045   -0.0556   24.4414 C   0  0  0  0  0  0  0  0  0  0  0  0
   13.1957   -0.4042   23.7548 C   0  0  0  0  0  0  0  0  0  0  0  0
   12.7908   -1.4422   22.8003 C   0  0  0  0  0  0  0  0  0  0  0  0
   11.8996   -1.8733   22.5703 C   0  0  0  0  0  0  0  0  0  0  0  0
    9.7482   -0.7540   22.4256 C   0  0  0  0  0  0  0  0  0  0  0  0
    9.1130   -0.0932   21.5026 C   0  0  0  0  0  0  0  0  0  0  0  0
    9.6174    0.8688   21.1467 O   0  0  0  0  0  0  0  0  0  0  0  0
    7.9570   -0.6758   21.1640 N   0  0  0  0  0  0  0  0  0  0  0  0
    7.2843   -0.0943   20.2467 C   0  0  0  0  0  0  0  0  0  0  0  0
    7.3482    0.1691   18.9687 C   0  0  0  0  0  0  0  0  0  0  0  0
    6.9305    0.5732   17.8811 N   0  0  0  0  0  0  0  0  0  0  0  0
    5.8220    1.0468   18.3910 C   0  0  0  0  0  0  0  0  0  0  0  0
    5.3914    1.0290   19.5312 C   0  0  0  0  0  0  0  0  0  0  0  0
    5.9022    0.5177   20.6868 C   0  0  0  0  0  0  0  0  0  0  0  0
    5.4396    0.5299   21.9550 C   0  0  0  0  0  0  0  0  0  0  0  0
    6.5667   -5.9979   26.9339 H   0  0  0  0  0  0  0  0  0  0  0  0
    5.9514   -4.5382   26.0871 H   0  0  0  0  0  0  0  0  0  0  0  0
    6.3331   -6.0243   25.1531 H   0  0  0  0  0  0  0  0  0  0  0  0
    7.3427   -3.4901   24.4665 H   0  0  0  0  0  0  0  0  0  0  0  0
   11.1992   -1.8595   22.8603 H   0  0  0  0  0  0  0  0  0  0  0  0
   10.3845   -0.0212   25.2225 H   0  0  0  0  0  0  0  0  0  0  0  0
   12.2988    0.7144   25.1734 H   0  0  0  0  0  0  0  0  0  0  0  0
   13.9619   -0.7984   24.4386 H   0  0  0  0  0  0  0  0  0  0  0  0
   13.5976    0.4671   23.2169 H   0  0  0  0  0  0  0  0  0  0  0  0
   13.6140   -1.8304   22.2190 H   0  0  0  0  0  0  0  0  0  0  0  0
   11.8501   -2.6383   21.8096 H   0  0  0  0  0  0  0  0  0  0  0  0
   11.0020   -1.5664   23.0867 H   0  0  0  0  0  0  0  0  0  0  0  0
    9.4639   -1.7052   21.9517 H   0  0  0  0  0  0  0  0  0  0  0  0
   10.7115   -0.4144   22.0173 H   0  0  0  0  0  0  0  0  0  0  0  0
    7.6386   -1.5161   21.6028 H   0  0  0  0  0  0  0  0  0  0  0  0
    8.3478   -0.1557   18.7205 H   0  0  0  0  0  0  0  0  0  0  0  0
    5.1770    1.5385   17.6779 H   0  0  0  0  0  0  0  0  0  0  0  0
    4.4292    1.5057   19.6470 H   0  0  0  0  0  0  0  0  0  0  0  0
    4.8383   -0.3734   22.1352 H   0  0  0  0  0  0  0  0  0  0  0  0
    6.2883    0.5508   22.6545 H   0  0  0  0  0  0  0  0  0  0  0  0
    4.8155    1.4225   22.1089 H   0  0  0  0  0  0  0  0  0  0  0  0
 20 21  2  0  0  0  0
 19 20  1  0  0  0  0
 21 22  1  0  0  0  0
 18 19  2  0  0  0  0
 22 23  2  0  0  0  0
 18 23  1  0  0  0  0
 17 18  1  0  0  0  0
 23 24  1  0  0  0  0
 15 16  2  0  0  0  0
 15 17  1  0  0  0  0
 14 15  1  0  0  0  0
  8 14  1  0  0  0  0
 12 13  2  0  0  0  0
 11 12  1  0  0  0  0
  7  8  1  0  0  0  0
  8  9  1  0  0  0  0
 10 11  1  0  0  0  0
  6  7  3  0  0  0  0
  5  6  1  0  0  0  0
  9 10  2  0  0  0  0
  2  5  1  0  0  0  0
  2  3  2  0  0  0  0
  1  2  1  0  0  0  0
  2  4  2  0  0  0  0
  1 25  1  0  0  0  0
  1 26  1  0  0  0  0
  1 27  1  0  0  0  0
  5 28  1  0  0  0  0
  8 29  1  0  0  0  0
  9 30  1  0  0  0  0
 10 31  1  0  0  0  0
 11 32  1  0  0  0  0
 11 33  1  0  0  0  0
 12 34  1  0  0  0  0
 13 35  1  0  0  0  0
 13 36  1  0  0  0  0
 14 37  1  0  0  0  0
 14 38  1  0  0  0  0
 17 39  1  0  0  0  0
 19 40  1  0  0  0  0
 21 41  1  0  0  0  0
 22 42  1  0  0  0  0
 24 43  1  0  0  0  0
 24 44  1  0  0  0  0
 24 45  1  0  0  0  0
M  END
> <Chemgauss4>
-13.187687

$$$$
