stable:False satoms:4 tatoms:24 sratio:0.16666666666666666
  -OEChem-08062413523D

 45 45  0     1  0  0  0  0  0999 V2000
   -6.0396   -5.2447  -25.6035 C   0  0  0  0  0  0  0  0  0  0  0  0
   -7.6521   -4.7468  -25.5213 S   0  0  0  0  0  0  0  0  0  0  0  0
   -8.5181   -5.9087  -25.4727 O   0  0  0  0  0  0  0  0  0  0  0  0
   -7.9255   -3.9522  -26.6898 O   0  0  0  0  0  0  0  0  0  0  0  0
   -7.7823   -3.8967  -24.1508 N   0  0  0  0  0  0  0  0  0  0  0  0
   -8.6125   -3.1364  -23.7877 C   0  0  0  0  0  0  0  0  0  0  0  0
   -9.1471   -2.2211  -23.3355 C   0  0  0  0  0  0  0  0  0  0  0  0
  -10.0718   -1.3269  -23.2231 C   0  0  2  0  0  0  0  0  0  0  0  0
  -10.6892   -0.3624  -24.3829 C   0  0  0  0  0  0  0  0  0  0  0  0
  -11.7784   -0.0616  -24.4873 C   0  0  0  0  0  0  0  0  0  0  0  0
  -12.9141   -0.4446  -23.8982 C   0  0  0  0  0  0  0  0  0  0  0  0
  -12.5633   -1.4770  -22.9166 C   0  0  0  0  0  0  0  0  0  0  0  0
  -11.6832   -1.8848  -22.6129 C   0  0  0  0  0  0  0  0  0  0  0  0
   -9.5844   -0.7074  -22.2800 C   0  0  0  0  0  0  0  0  0  0  0  0
   -9.0492   -0.0352  -21.3033 C   0  0  0  0  0  0  0  0  0  0  0  0
   -9.6090    0.9102  -20.9881 O   0  0  0  0  0  0  0  0  0  0  0  0
   -7.9105   -0.5877  -20.8693 N   0  0  0  0  0  0  0  0  0  0  0  0
   -7.3353    0.0063  -19.8955 C   0  0  0  0  0  0  0  0  0  0  0  0
   -7.5156    0.2598  -18.6266 C   0  0  0  0  0  0  0  0  0  0  0  0
   -7.2039    0.6683  -17.5056 N   0  0  0  0  0  0  0  0  0  0  0  0
   -6.0696    1.1756  -17.9168 C   0  0  0  0  0  0  0  0  0  0  0  0
   -5.5428    1.1770  -19.0161 C   0  0  0  0  0  0  0  0  0  0  0  0
   -5.9383    0.6590  -20.2132 C   0  0  0  0  0  0  0  0  0  0  0  0
   -5.3696    0.6921  -21.4370 C   0  0  0  0  0  0  0  0  0  0  0  0
   -5.8831   -5.8326  -26.5200 H   0  0  0  0  0  0  0  0  0  0  0  0
   -5.3836   -4.3618  -25.6179 H   0  0  0  0  0  0  0  0  0  0  0  0
   -5.8020   -5.8639  -24.7259 H   0  0  0  0  0  0  0  0  0  0  0  0
   -6.9373   -3.3629  -24.1182 H   0  0  0  0  0  0  0  0  0  0  0  0
  -10.9612   -1.8498  -22.8417 H   0  0  0  0  0  0  0  0  0  0  0  0
   -9.9996    0.0253  -25.1182 H   0  0  0  0  0  0  0  0  0  0  0  0
  -11.9309    0.7074  -25.2302 H   0  0  0  0  0  0  0  0  0  0  0  0
  -13.6077   -0.8555  -24.6466 H   0  0  0  0  0  0  0  0  0  0  0  0
  -13.3849    0.4118  -23.3932 H   0  0  0  0  0  0  0  0  0  0  0  0
  -13.4220   -1.8916  -22.4095 H   0  0  0  0  0  0  0  0  0  0  0  0
  -11.6775   -2.6529  -21.8537 H   0  0  0  0  0  0  0  0  0  0  0  0
  -10.7538   -1.5499  -23.0492 H   0  0  0  0  0  0  0  0  0  0  0  0
   -9.3151   -1.6533  -21.7873 H   0  0  0  0  0  0  0  0  0  0  0  0
  -10.5882   -0.3972  -21.9543 H   0  0  0  0  0  0  0  0  0  0  0  0
   -7.5323   -1.4161  -21.2826 H   0  0  0  0  0  0  0  0  0  0  0  0
   -8.5233   -0.0942  -18.4663 H   0  0  0  0  0  0  0  0  0  0  0  0
   -5.5020    1.6804  -17.1492 H   0  0  0  0  0  0  0  0  0  0  0  0
   -4.5880    1.6808  -19.0472 H   0  0  0  0  0  0  0  0  0  0  0  0
   -4.7299   -0.1930  -21.5687 H   0  0  0  0  0  0  0  0  0  0  0  0
   -6.1556    0.6940  -22.2065 H   0  0  0  0  0  0  0  0  0  0  0  0
   -4.7599    1.6026  -21.5334 H   0  0  0  0  0  0  0  0  0  0  0  0
 20 21  2  0  0  0  0
 19 20  1  0  0  0  0
 21 22  1  0  0  0  0
 18 19  2  0  0  0  0
 22 23  2  0  0  0  0
 18 23  1  0  0  0  0
 17 18  1  0  0  0  0
 23 24  1  0  0  0  0
 15 16  2  0  0  0  0
 15 17  1  0  0  0  0
 14 15  1  0  0  0  0
  8 14  1  0  0  0  0
 12 13  2  0  0  0  0
 11 12  1  0  0  0  0
  7  8  1  0  0  0  0
  8  9  1  0  0  0  0
 10 11  1  0  0  0  0
  6  7  3  0  0  0  0
  5  6  1  0  0  0  0
  9 10  2  0  0  0  0
  2  5  1  0  0  0  0
  2  3  2  0  0  0  0
  1  2  1  0  0  0  0
  2  4  2  0  0  0  0
  1 25  1  0  0  0  0
  1 26  1  0  0  0  0
  1 27  1  0  0  0  0
  5 28  1  0  0  0  0
  8 29  1  0  0  0  0
  9 30  1  0  0  0  0
 10 31  1  0  0  0  0
 11 32  1  0  0  0  0
 11 33  1  0  0  0  0
 12 34  1  0  0  0  0
 13 35  1  0  0  0  0
 13 36  1  0  0  0  0
 14 37  1  0  0  0  0
 14 38  1  0  0  0  0
 17 39  1  0  0  0  0
 19 40  1  0  0  0  0
 21 41  1  0  0  0  0
 22 42  1  0  0  0  0
 24 43  1  0  0  0  0
 24 44  1  0  0  0  0
 24 45  1  0  0  0  0
M  END
> <Chemgauss4>
-12.824108

$$$$
