MODEL 1
REMARK VINA RESULT:    -8.123      0.000      0.000
REMARK INTER + INTRA:         -10.669
REMARK INTER:                 -10.023
REMARK INTRA:                  -0.647
REMARK UNBOUND:                -0.647
REMARK  4 active torsions:
REMARK  status: ('A' for Active; 'I' for Inactive)
REMARK    1  A    between atoms: S_2  and  N_5 
REMARK    2  A    between atoms: N_5  and  C_7 
REMARK    3  A    between atoms: C_15  and  C_16 
REMARK       I    between atoms: C_16  and  N_18 
REMARK    4  A    between atoms: N_18  and  C_20 
ROOT
HETATM    1  C   UNL     1       8.476  -3.574  23.770  1.00  0.00     0.109 C 
HETATM    2  C   UNL     1       8.923  -2.366  23.235  1.00  0.00    -0.012 A 
HETATM    3  C   UNL     1       9.673  -1.376  23.407  1.00  0.00     0.040 A 
HETATM    4  C   UNL     1       9.708  -0.609  24.391  1.00  0.00     0.027 C 
HETATM    5  C   UNL     1      11.154   0.266  24.891  1.00  0.00     0.029 C 
HETATM    6  C   UNL     1      11.951  -0.084  24.333  1.00  0.00    -0.027 C 
HETATM    7  C   UNL     1      12.062  -1.074  23.331  1.00  0.00    -0.007 C 
HETATM    8  C   UNL     1      11.335  -1.608  22.972  1.00  0.00    -0.007 C 
HETATM    9  C   UNL     1       9.052  -1.155  22.318  1.00  0.00     0.036 A 
ENDROOT
BRANCH   9  10
HETATM   10  C   UNL     1       8.601  -0.417  21.208  1.00  0.00     0.254 C 
HETATM   11  O   UNL     1       9.304   0.322  20.657  1.00  0.00    -0.268 OA
HETATM   12  N   UNL     1       7.361  -0.741  21.074  1.00  0.00    -0.321 N 
ATOM     13  HN  UNL     1       6.921  -1.384  21.732  1.00  0.00     0.169 HD
BRANCH  12  14
HETATM   14  C   UNL     1       6.706  -0.257  20.131  1.00  0.00     0.056 A 
HETATM   15  C   UNL     1       6.355  -0.526  18.895  1.00  0.00     0.117 A 
HETATM   16  N   UNL     1       5.804  -0.376  17.802  1.00  0.00    -0.373 N 
HETATM   17  C   UNL     1       5.335   0.819  18.131  1.00  0.00     0.088 A 
ATOM     18  HN  UNL     1       5.735  -0.953  16.964  1.00  0.00     0.164 HD
HETATM   19  C   UNL     1       5.429   1.431  19.171  1.00  0.00     0.026 A 
HETATM   20  C   UNL     1       5.996   1.146  20.343  1.00  0.00    -0.033 A 
HETATM   21  C   UNL     1       6.082   1.861  21.569  1.00  0.00     0.050 C 
ENDBRANCH  12  14
ENDBRANCH   9  10
BRANCH   1  22
HETATM   22  N   UNL     1       7.707  -4.353  24.018  1.00  0.00    -0.295 N 
ATOM     23  HN  UNL     1       7.674  -4.640  24.996  1.00  0.00     0.177 HD
BRANCH  22  24
HETATM   24  S   UNL     1       6.613  -5.106  23.019  1.00  0.00     0.226 S 
HETATM   25  C   UNL     1       5.648  -3.830  22.279  1.00  0.00     0.186 C 
HETATM   26  O   UNL     1       7.297  -5.823  22.010  1.00  0.00    -0.206 OA
HETATM   27  O   UNL     1       5.739  -5.921  23.810  1.00  0.00    -0.206 OA
ENDBRANCH  22  24
ENDBRANCH   1  22
TORSDOF 4
ENDMDL
MODEL 2
REMARK VINA RESULT:    -7.968      2.653      5.924
REMARK INTER + INTRA:         -10.478
REMARK INTER:                  -9.710
REMARK INTRA:                  -0.768
REMARK UNBOUND:                -0.647
REMARK  4 active torsions:
REMARK  status: ('A' for Active; 'I' for Inactive)
REMARK    1  A    between atoms: S_2  and  N_5 
REMARK    2  A    between atoms: N_5  and  C_7 
REMARK    3  A    between atoms: C_15  and  C_16 
REMARK       I    between atoms: C_16  and  N_18 
REMARK    4  A    between atoms: N_18  and  C_20 
ROOT
HETATM    1  C   UNL     1       9.128   0.832  22.081  1.00  0.00     0.109 C 
HETATM    2  C   UNL     1       9.648  -0.057  23.020  1.00  0.00    -0.012 A 
HETATM    3  C   UNL     1      10.666  -0.691  23.388  1.00  0.00     0.040 A 
HETATM    4  C   UNL     1      11.366  -1.468  22.707  1.00  0.00     0.027 C 
HETATM    5  C   UNL     1      13.078  -1.756  23.014  1.00  0.00     0.029 C 
HETATM    6  C   UNL     1      13.396  -1.078  23.726  1.00  0.00    -0.027 C 
HETATM    7  C   UNL     1      12.741  -0.038  24.423  1.00  0.00    -0.007 C 
HETATM    8  C   UNL     1      11.804   0.202  24.342  1.00  0.00    -0.007 C 
HETATM    9  C   UNL     1       9.736  -1.038  24.184  1.00  0.00     0.036 A 
ENDROOT
BRANCH   9  10
HETATM   10  C   UNL     1       9.100  -1.792  25.188  1.00  0.00     0.254 C 
HETATM   11  O   UNL     1       8.951  -1.360  26.254  1.00  0.00    -0.268 OA
HETATM   12  N   UNL     1       8.842  -2.929  24.639  1.00  0.00    -0.321 N 
ATOM     13  HN  UNL     1       9.129  -3.115  23.678  1.00  0.00     0.169 HD
BRANCH  12  14
HETATM   14  C   UNL     1       8.238  -3.797  25.297  1.00  0.00     0.056 A 
HETATM   15  C   UNL     1       8.461  -4.733  26.190  1.00  0.00     0.117 A 
HETATM   16  N   UNL     1       8.211  -5.642  26.984  1.00  0.00    -0.373 N 
HETATM   17  C   UNL     1       6.928  -5.662  26.653  1.00  0.00     0.088 A 
ATOM     18  HN  UNL     1       8.776  -6.175  27.645  1.00  0.00     0.164 HD
HETATM   19  C   UNL     1       6.315  -4.966  25.877  1.00  0.00     0.026 A 
HETATM   20  C   UNL     1       6.670  -3.941  25.103  1.00  0.00    -0.033 A 
HETATM   21  C   UNL     1       5.938  -3.111  24.209  1.00  0.00     0.050 C 
ENDBRANCH  12  14
ENDBRANCH   9  10
BRANCH   1  22
HETATM   22  N   UNL     1       8.344   1.228  21.381  1.00  0.00    -0.295 N 
ATOM     23  HN  UNL     1       8.262   2.244  21.346  1.00  0.00     0.177 HD
BRANCH  22  24
HETATM   24  S   UNL     1       7.298   0.395  20.394  1.00  0.00     0.226 S 
HETATM   25  C   UNL     1       5.830   1.364  20.289  1.00  0.00     0.186 C 
HETATM   26  O   UNL     1       7.862   0.252  19.106  1.00  0.00    -0.206 OA
HETATM   27  O   UNL     1       6.962  -0.853  21.014  1.00  0.00    -0.206 OA
ENDBRANCH  22  24
ENDBRANCH   1  22
TORSDOF 4
ENDMDL
MODEL 3
REMARK VINA RESULT:    -7.563      3.717      6.083
REMARK INTER + INTRA:          -9.978
REMARK INTER:                  -9.283
REMARK INTRA:                  -0.696
REMARK UNBOUND:                -0.647
REMARK  4 active torsions:
REMARK  status: ('A' for Active; 'I' for Inactive)
REMARK    1  A    between atoms: S_2  and  N_5 
REMARK    2  A    between atoms: N_5  and  C_7 
REMARK    3  A    between atoms: C_15  and  C_16 
REMARK       I    between atoms: C_16  and  N_18 
REMARK    4  A    between atoms: N_18  and  C_20 
ROOT
HETATM    1  C   UNL     1       7.018  -5.659  26.638  1.00  0.00     0.109 C 
HETATM    2  C   UNL     1       7.082  -4.825  25.523  1.00  0.00    -0.012 A 
HETATM    3  C   UNL     1       7.026  -4.768  24.272  1.00  0.00     0.040 A 
HETATM    4  C   UNL     1       7.700  -5.421  23.449  1.00  0.00     0.027 C 
HETATM    5  C   UNL     1       7.134  -5.822  21.828  1.00  0.00     0.029 C 
HETATM    6  C   UNL     1       6.137  -5.558  21.761  1.00  0.00    -0.027 C 
HETATM    7  C   UNL     1       5.229  -4.989  22.683  1.00  0.00    -0.007 C 
HETATM    8  C   UNL     1       5.432  -4.720  23.592  1.00  0.00    -0.007 C 
HETATM    9  C   UNL     1       7.278  -3.583  24.660  1.00  0.00     0.036 A 
ENDROOT
BRANCH   9  10
HETATM   10  C   UNL     1       7.643  -2.229  24.544  1.00  0.00     0.254 C 
HETATM   11  O   UNL     1       6.843  -1.390  24.583  1.00  0.00    -0.268 OA
HETATM   12  N   UNL     1       8.918  -2.241  24.360  1.00  0.00    -0.321 N 
ATOM     13  HN  UNL     1       9.423  -3.125  24.298  1.00  0.00     0.169 HD
BRANCH  12  14
HETATM   14  C   UNL     1       9.528  -1.159  24.258  1.00  0.00     0.056 A 
HETATM   15  C   UNL     1      10.138  -0.264  24.999  1.00  0.00     0.117 A 
HETATM   16  N   UNL     1      10.780   0.753  25.270  1.00  0.00    -0.373 N 
HETATM   17  C   UNL     1      10.786   1.163  24.010  1.00  0.00     0.088 A 
ATOM     18  HN  UNL     1      11.161   1.135  26.136  1.00  0.00     0.164 HD
HETATM   19  C   UNL     1      10.338   0.632  23.019  1.00  0.00     0.026 A 
HETATM   20  C   UNL     1       9.711  -0.526  22.815  1.00  0.00    -0.033 A 
HETATM   21  C   UNL     1       9.209  -1.154  21.643  1.00  0.00     0.050 C 
ENDBRANCH  12  14
ENDBRANCH   9  10
BRANCH   1  22
HETATM   22  N   UNL     1       7.333  -6.029  27.650  1.00  0.00    -0.295 N 
ATOM     23  HN  UNL     1       8.338  -6.139  27.783  1.00  0.00     0.177 HD
BRANCH  22  24
HETATM   24  S   UNL     1       6.394  -6.422  28.964  1.00  0.00     0.226 S 
HETATM   25  C   UNL     1       4.745  -6.597  28.368  1.00  0.00     0.186 C 
HETATM   26  O   UNL     1       6.828  -7.650  29.515  1.00  0.00    -0.206 OA
HETATM   27  O   UNL     1       6.416  -5.335  29.898  1.00  0.00    -0.206 OA
ENDBRANCH  22  24
ENDBRANCH   1  22
TORSDOF 4
ENDMDL
MODEL 4
REMARK VINA RESULT:    -7.563      3.785      5.940
REMARK INTER + INTRA:          -9.978
REMARK INTER:                  -9.401
REMARK INTRA:                  -0.577
REMARK UNBOUND:                -0.647
REMARK  4 active torsions:
REMARK  status: ('A' for Active; 'I' for Inactive)
REMARK    1  A    between atoms: S_2  and  N_5 
REMARK    2  A    between atoms: N_5  and  C_7 
REMARK    3  A    between atoms: C_15  and  C_16 
REMARK       I    between atoms: C_16  and  N_18 
REMARK    4  A    between atoms: N_18  and  C_20 
ROOT
HETATM    1  C   UNL     1       6.360  -4.060  26.021  1.00  0.00     0.109 C 
HETATM    2  C   UNL     1       6.958  -3.847  24.780  1.00  0.00    -0.012 A 
HETATM    3  C   UNL     1       7.104  -4.290  23.615  1.00  0.00     0.040 A 
HETATM    4  C   UNL     1       7.497  -5.425  23.276  1.00  0.00     0.027 C 
HETATM    5  C   UNL     1       7.034  -6.202  21.763  1.00  0.00     0.029 C 
HETATM    6  C   UNL     1       6.296  -5.630  21.320  1.00  0.00    -0.027 C 
HETATM    7  C   UNL     1       5.646  -4.435  21.703  1.00  0.00    -0.007 C 
HETATM    8  C   UNL     1       5.826  -3.918  22.504  1.00  0.00    -0.007 C 
HETATM    9  C   UNL     1       7.827  -3.245  23.681  1.00  0.00     0.036 A 
ENDROOT
BRANCH   9  10
HETATM   10  C   UNL     1       8.796  -2.309  23.275  1.00  0.00     0.254 C 
HETATM   11  O   UNL     1       8.943  -2.051  22.154  1.00  0.00    -0.268 OA
HETATM   12  N   UNL     1       9.388  -1.948  24.361  1.00  0.00    -0.321 N 
ATOM     13  HN  UNL     1       9.127  -2.365  25.254  1.00  0.00     0.169 HD
BRANCH  12  14
HETATM   14  C   UNL     1      10.284  -1.084  24.306  1.00  0.00     0.056 A 
HETATM   15  C   UNL     1      11.556  -0.958  24.010  1.00  0.00     0.117 A 
HETATM   16  N   UNL     1      12.640  -0.399  23.827  1.00  0.00    -0.373 N 
HETATM   17  C   UNL     1      12.177   0.773  24.237  1.00  0.00     0.088 A 
ATOM     18  HN  UNL     1      13.548  -0.717  23.489  1.00  0.00     0.164 HD
HETATM   19  C   UNL     1      11.064   1.086  24.594  1.00  0.00     0.026 A 
HETATM   20  C   UNL     1       9.918   0.412  24.690  1.00  0.00    -0.033 A 
HETATM   21  C   UNL     1       8.608   0.793  25.088  1.00  0.00     0.050 C 
ENDBRANCH  12  14
ENDBRANCH   9  10
BRANCH   1  22
HETATM   22  N   UNL     1       6.324  -4.073  27.143  1.00  0.00    -0.295 N 
ATOM     23  HN  UNL     1       6.259  -3.158  27.589  1.00  0.00     0.177 HD
BRANCH  22  24
HETATM   24  S   UNL     1       6.365  -5.370  28.181  1.00  0.00     0.226 S 
HETATM   25  C   UNL     1       5.034  -6.428  27.715  1.00  0.00     0.186 C 
HETATM   26  O   UNL     1       7.589  -6.063  28.038  1.00  0.00    -0.206 OA
HETATM   27  O   UNL     1       6.119  -4.910  29.516  1.00  0.00    -0.206 OA
ENDBRANCH  22  24
ENDBRANCH   1  22
TORSDOF 4
ENDMDL
MODEL 5
REMARK VINA RESULT:    -6.982      5.707      7.785
REMARK INTER + INTRA:          -9.261
REMARK INTER:                  -8.594
REMARK INTRA:                  -0.667
REMARK UNBOUND:                -0.647
REMARK  4 active torsions:
REMARK  status: ('A' for Active; 'I' for Inactive)
REMARK    1  A    between atoms: S_2  and  N_5 
REMARK    2  A    between atoms: N_5  and  C_7 
REMARK    3  A    between atoms: C_15  and  C_16 
REMARK       I    between atoms: C_16  and  N_18 
REMARK    4  A    between atoms: N_18  and  C_20 
ROOT
HETATM    1  C   UNL     1       6.772  -5.662  26.390  1.00  0.00     0.109 C 
HETATM    2  C   UNL     1       5.924  -5.755  25.287  1.00  0.00    -0.012 A 
HETATM    3  C   UNL     1       5.624  -5.265  24.173  1.00  0.00     0.040 A 
HETATM    4  C   UNL     1       5.339  -4.077  23.915  1.00  0.00     0.027 C 
HETATM    5  C   UNL     1       5.612  -3.331  22.342  1.00  0.00     0.029 C 
HETATM    6  C   UNL     1       6.162  -3.989  21.765  1.00  0.00    -0.027 C 
HETATM    7  C   UNL     1       6.697  -5.273  22.016  1.00  0.00    -0.007 C 
HETATM    8  C   UNL     1       6.600  -5.781  22.837  1.00  0.00    -0.007 C 
HETATM    9  C   UNL     1       4.785  -6.199  24.377  1.00  0.00     0.036 A 
ENDROOT
BRANCH   9  10
HETATM   10  C   UNL     1       3.633  -6.979  24.165  1.00  0.00     0.254 C 
HETATM   11  O   UNL     1       3.415  -7.912  24.818  1.00  0.00    -0.268 OA
HETATM   12  N   UNL     1       3.045  -6.439  23.154  1.00  0.00    -0.321 N 
ATOM     13  HN  UNL     1       3.462  -5.636  22.682  1.00  0.00     0.169 HD
BRANCH  12  14
HETATM   14  C   UNL     1       1.961  -6.909  22.759  1.00  0.00     0.056 A 
HETATM   15  C   UNL     1       1.481  -7.925  22.081  1.00  0.00     0.117 A 
HETATM   16  N   UNL     1       0.639  -8.662  21.564  1.00  0.00    -0.373 N 
HETATM   17  C   UNL     1      -0.361  -7.861  21.900  1.00  0.00     0.088 A 
ATOM     18  HN  UNL     1       0.692  -9.552  21.067  1.00  0.00     0.164 HD
HETATM   19  C   UNL     1      -0.350  -6.827  22.529  1.00  0.00     0.026 A 
HETATM   20  C   UNL     1       0.623  -6.135  23.119  1.00  0.00    -0.033 A 
HETATM   21  C   UNL     1       0.625  -4.932  23.878  1.00  0.00     0.050 C 
ENDBRANCH  12  14
ENDBRANCH   9  10
BRANCH   1  22
HETATM   22  N   UNL     1       7.022  -5.685  27.485  1.00  0.00    -0.295 N 
ATOM     23  HN  UNL     1       7.961  -5.368  27.726  1.00  0.00     0.177 HD
BRANCH  22  24
HETATM   24  S   UNL     1       6.080  -6.161  28.769  1.00  0.00     0.226 S 
HETATM   25  C   UNL     1       4.405  -5.890  28.290  1.00  0.00     0.186 C 
HETATM   26  O   UNL     1       6.279  -7.537  29.026  1.00  0.00    -0.206 OA
HETATM   27  O   UNL     1       6.362  -5.321  29.895  1.00  0.00    -0.206 OA
ENDBRANCH  22  24
ENDBRANCH   1  22
TORSDOF 4
ENDMDL
MODEL 6
REMARK VINA RESULT:    -6.970      4.167      7.089
REMARK INTER + INTRA:          -9.246
REMARK INTER:                  -8.539
REMARK INTRA:                  -0.707
REMARK UNBOUND:                -0.647
REMARK  4 active torsions:
REMARK  status: ('A' for Active; 'I' for Inactive)
REMARK    1  A    between atoms: S_2  and  N_5 
REMARK    2  A    between atoms: N_5  and  C_7 
REMARK    3  A    between atoms: C_15  and  C_16 
REMARK       I    between atoms: C_16  and  N_18 
REMARK    4  A    between atoms: N_18  and  C_20 
ROOT
HETATM    1  C   UNL     1       5.411  -6.544  27.686  1.00  0.00     0.109 C 
HETATM    2  C   UNL     1       5.718  -5.940  26.467  1.00  0.00    -0.012 A 
HETATM    3  C   UNL     1       5.306  -5.680  25.312  1.00  0.00     0.040 A 
HETATM    4  C   UNL     1       4.864  -6.481  24.463  1.00  0.00     0.027 C 
HETATM    5  C   UNL     1       3.702  -6.034  23.215  1.00  0.00     0.029 C 
HETATM    6  C   UNL     1       3.368  -5.076  23.415  1.00  0.00    -0.027 C 
HETATM    7  C   UNL     1       3.656  -4.153  24.446  1.00  0.00    -0.007 C 
HETATM    8  C   UNL     1       4.283  -4.287  25.174  1.00  0.00    -0.007 C 
HETATM    9  C   UNL     1       6.497  -5.237  25.361  1.00  0.00     0.036 A 
ENDROOT
BRANCH   9  10
HETATM   10  C   UNL     1       7.708  -4.711  24.874  1.00  0.00     0.254 C 
HETATM   11  O   UNL     1       8.687  -5.330  24.915  1.00  0.00    -0.268 OA
HETATM   12  N   UNL     1       7.422  -3.514  24.493  1.00  0.00    -0.321 N 
ATOM     13  HN  UNL     1       6.479  -3.145  24.612  1.00  0.00     0.169 HD
BRANCH  12  14
HETATM   14  C   UNL     1       8.313  -2.812  23.977  1.00  0.00     0.056 A 
HETATM   15  C   UNL     1       8.899  -2.602  22.821  1.00  0.00     0.117 A 
HETATM   16  N   UNL     1       9.663  -2.090  22.001  1.00  0.00    -0.373 N 
HETATM   17  C   UNL     1      10.241  -1.329  22.919  1.00  0.00     0.088 A 
ATOM     18  HN  UNL     1       9.799  -2.208  20.997  1.00  0.00     0.164 HD
HETATM   19  C   UNL     1       9.999  -1.217  24.099  1.00  0.00     0.026 A 
HETATM   20  C   UNL     1       9.086  -1.773  24.895  1.00  0.00    -0.033 A 
HETATM   21  C   UNL     1       8.792  -1.618  26.277  1.00  0.00     0.050 C 
ENDBRANCH  12  14
ENDBRANCH   9  10
BRANCH   1  22
HETATM   22  N   UNL     1       5.631  -7.158  28.599  1.00  0.00    -0.295 N 
ATOM     23  HN  UNL     1       5.683  -8.166  28.447  1.00  0.00     0.177 HD
BRANCH  22  24
HETATM   24  S   UNL     1       5.884  -6.662  30.165  1.00  0.00     0.226 S 
HETATM   25  C   UNL     1       4.309  -6.678  30.956  1.00  0.00     0.186 C 
HETATM   26  O   UNL     1       6.750  -7.566  30.823  1.00  0.00    -0.206 OA
HETATM   27  O   UNL     1       6.363  -5.312  30.158  1.00  0.00    -0.206 OA
ENDBRANCH  22  24
ENDBRANCH   1  22
TORSDOF 4
ENDMDL
MODEL 7
REMARK VINA RESULT:    -6.921      2.411      5.216
REMARK INTER + INTRA:          -9.186
REMARK INTER:                  -8.542
REMARK INTRA:                  -0.643
REMARK UNBOUND:                -0.647
REMARK  4 active torsions:
REMARK  status: ('A' for Active; 'I' for Inactive)
REMARK    1  A    between atoms: S_2  and  N_5 
REMARK    2  A    between atoms: N_5  and  C_7 
REMARK    3  A    between atoms: C_15  and  C_16 
REMARK       I    between atoms: C_16  and  N_18 
REMARK    4  A    between atoms: N_18  and  C_20 
ROOT
HETATM    1  C   UNL     1       8.196   0.065  20.798  1.00  0.00     0.109 C 
HETATM    2  C   UNL     1       8.618  -0.793  21.812  1.00  0.00    -0.012 A 
HETATM    3  C   UNL     1       9.552  -1.081  22.598  1.00  0.00     0.040 A 
HETATM    4  C   UNL     1      10.743  -1.318  22.312  1.00  0.00     0.027 C 
HETATM    5  C   UNL     1      12.086  -1.025  23.416  1.00  0.00     0.029 C 
HETATM    6  C   UNL     1      11.723  -0.508  24.233  1.00  0.00    -0.027 C 
HETATM    7  C   UNL     1      10.439  -0.026  24.574  1.00  0.00    -0.007 C 
HETATM    8  C   UNL     1       9.629  -0.138  24.050  1.00  0.00    -0.007 C 
HETATM    9  C   UNL     1       8.650  -1.957  22.797  1.00  0.00     0.036 A 
ENDROOT
BRANCH   9  10
HETATM   10  C   UNL     1       8.079  -3.142  23.296  1.00  0.00     0.254 C 
HETATM   11  O   UNL     1       8.676  -3.840  24.004  1.00  0.00    -0.268 OA
HETATM   12  N   UNL     1       6.911  -3.203  22.756  1.00  0.00    -0.321 N 
ATOM     13  HN  UNL     1       6.609  -2.487  22.096  1.00  0.00     0.169 HD
BRANCH  12  14
HETATM   14  C   UNL     1       6.154  -4.148  23.052  1.00  0.00     0.056 A 
HETATM   15  C   UNL     1       5.917  -5.398  22.730  1.00  0.00     0.117 A 
HETATM   16  N   UNL     1       5.385  -6.510  22.769  1.00  0.00    -0.373 N 
HETATM   17  C   UNL     1       4.500  -6.125  23.677  1.00  0.00     0.088 A 
ATOM     18  HN  UNL     1       5.561  -7.391  22.286  1.00  0.00     0.164 HD
HETATM   19  C   UNL     1       4.375  -5.060  24.237  1.00  0.00     0.026 A 
HETATM   20  C   UNL     1       5.059  -3.918  24.177  1.00  0.00    -0.033 A 
HETATM   21  C   UNL     1       4.920  -2.676  24.857  1.00  0.00     0.050 C 
ENDBRANCH  12  14
ENDBRANCH   9  10
BRANCH   1  22
HETATM   22  N   UNL     1       7.694   0.322  19.827  1.00  0.00    -0.295 N 
ATOM     23  HN  UNL     1       8.295   0.756  19.126  1.00  0.00     0.177 HD
BRANCH  22  24
HETATM   24  S   UNL     1       6.113   0.095  19.368  1.00  0.00     0.226 S 
HETATM   25  C   UNL     1       5.213   1.488  19.966  1.00  0.00     0.186 C 
HETATM   26  O   UNL     1       6.024   0.047  17.958  1.00  0.00    -0.206 OA
HETATM   27  O   UNL     1       5.600  -1.076  20.015  1.00  0.00    -0.206 OA
ENDBRANCH  22  24
ENDBRANCH   1  22
TORSDOF 4
ENDMDL
MODEL 8
REMARK VINA RESULT:    -6.806     20.000     23.009
REMARK INTER + INTRA:          -9.044
REMARK INTER:                  -8.340
REMARK INTRA:                  -0.704
REMARK UNBOUND:                -0.647
REMARK  4 active torsions:
REMARK  status: ('A' for Active; 'I' for Inactive)
REMARK    1  A    between atoms: S_2  and  N_5 
REMARK    2  A    between atoms: N_5  and  C_7 
REMARK    3  A    between atoms: C_15  and  C_16 
REMARK       I    between atoms: C_16  and  N_18 
REMARK    4  A    between atoms: N_18  and  C_20 
ROOT
HETATM    1  C   UNL     1       7.733  12.724   3.039  1.00  0.00     0.109 C 
HETATM    2  C   UNL     1       6.531  12.021   3.107  1.00  0.00    -0.012 A 
HETATM    3  C   UNL     1       5.303  12.097   3.353  1.00  0.00     0.040 A 
HETATM    4  C   UNL     1       4.760  12.535   4.387  1.00  0.00     0.027 C 
HETATM    5  C   UNL     1       3.149  13.251   4.411  1.00  0.00     0.029 C 
HETATM    6  C   UNL     1       2.834  13.366   3.433  1.00  0.00    -0.027 C 
HETATM    7  C   UNL     1       3.438  13.081   2.188  1.00  0.00    -0.007 C 
HETATM    8  C   UNL     1       4.312  12.680   2.056  1.00  0.00    -0.007 C 
HETATM    9  C   UNL     1       5.530  10.871   3.098  1.00  0.00     0.036 A 
ENDROOT
BRANCH   9  10
HETATM   10  C   UNL     1       5.265   9.491   3.019  1.00  0.00     0.254 C 
HETATM   11  O   UNL     1       5.304   8.934   2.002  1.00  0.00    -0.268 OA
HETATM   12  N   UNL     1       4.967   9.138   4.221  1.00  0.00    -0.321 N 
ATOM     13  HN  UNL     1       4.935   9.831   4.969  1.00  0.00     0.169 HD
BRANCH  12  14
HETATM   14  C   UNL     1       4.717   7.941   4.458  1.00  0.00     0.056 A 
HETATM   15  C   UNL     1       5.318   6.779   4.561  1.00  0.00     0.117 A 
HETATM   16  N   UNL     1       5.447   5.570   4.763  1.00  0.00    -0.373 N 
HETATM   17  C   UNL     1       4.144   5.394   4.929  1.00  0.00     0.088 A 
ATOM     18  HN  UNL     1       6.251   4.942   4.791  1.00  0.00     0.164 HD
HETATM   19  C   UNL     1       3.244   6.203   4.917  1.00  0.00     0.026 A 
HETATM   20  C   UNL     1       3.215   7.526   4.759  1.00  0.00    -0.033 A 
HETATM   21  C   UNL     1       2.155   8.473   4.769  1.00  0.00     0.050 C 
ENDBRANCH  12  14
ENDBRANCH   9  10
BRANCH   1  22
HETATM   22  N   UNL     1       8.836  12.868   3.190  1.00  0.00    -0.295 N 
ATOM     23  HN  UNL     1       9.413  12.048   3.004  1.00  0.00     0.177 HD
BRANCH  22  24
HETATM   24  S   UNL     1       9.663  14.226   3.675  1.00  0.00     0.226 S 
HETATM   25  C   UNL     1       8.451  15.380   4.229  1.00  0.00     0.186 C 
HETATM   26  O   UNL     1      10.530  13.905   4.745  1.00  0.00    -0.206 OA
HETATM   27  O   UNL     1      10.334  14.795   2.545  1.00  0.00    -0.206 OA
ENDBRANCH  22  24
ENDBRANCH   1  22
TORSDOF 4
ENDMDL
MODEL 9
REMARK VINA RESULT:    -6.802     14.192     16.019
REMARK INTER + INTRA:          -9.040
REMARK INTER:                  -8.322
REMARK INTRA:                  -0.717
REMARK UNBOUND:                -0.647
REMARK  4 active torsions:
REMARK  status: ('A' for Active; 'I' for Inactive)
REMARK    1  A    between atoms: S_2  and  N_5 
REMARK    2  A    between atoms: N_5  and  C_7 
REMARK    3  A    between atoms: C_15  and  C_16 
REMARK       I    between atoms: C_16  and  N_18 
REMARK    4  A    between atoms: N_18  and  C_20 
ROOT
HETATM    1  C   UNL     1      24.662  -3.562  24.768  1.00  0.00     0.109 C 
HETATM    2  C   UNL     1      24.078  -2.588  23.960  1.00  0.00    -0.012 A 
HETATM    3  C   UNL     1      23.119  -1.789  23.836  1.00  0.00     0.040 A 
HETATM    4  C   UNL     1      21.900  -2.048  23.892  1.00  0.00     0.027 C 
HETATM    5  C   UNL     1      20.680  -0.882  24.403  1.00  0.00     0.029 C 
HETATM    6  C   UNL     1      21.167  -0.048  24.771  1.00  0.00    -0.027 C 
HETATM    7  C   UNL     1      22.533   0.277  24.930  1.00  0.00    -0.007 C 
HETATM    8  C   UNL     1      23.286  -0.280  24.675  1.00  0.00    -0.007 C 
HETATM    9  C   UNL     1      23.804  -1.675  22.770  1.00  0.00     0.036 A 
ENDROOT
BRANCH   9  10
HETATM   10  C   UNL     1      24.103  -1.268  21.456  1.00  0.00     0.254 C 
HETATM   11  O   UNL     1      24.969  -0.526  21.244  1.00  0.00    -0.268 OA
HETATM   12  N   UNL     1      23.221  -1.847  20.718  1.00  0.00    -0.321 N 
ATOM     13  HN  UNL     1      22.494  -2.425  21.140  1.00  0.00     0.169 HD
BRANCH  12  14
HETATM   14  C   UNL     1      23.266  -1.693  19.483  1.00  0.00     0.056 A 
HETATM   15  C   UNL     1      22.913  -0.836  18.553  1.00  0.00     0.117 A 
HETATM   16  N   UNL     1      22.797  -0.354  17.424  1.00  0.00    -0.373 N 
HETATM   17  C   UNL     1      23.345  -1.413  16.846  1.00  0.00     0.088 A 
ATOM     18  HN  UNL     1      22.423   0.526  17.070  1.00  0.00     0.164 HD
HETATM   19  C   UNL     1      23.804  -2.417  17.341  1.00  0.00     0.026 A 
HETATM   20  C   UNL     1      23.951  -2.821  18.602  1.00  0.00    -0.033 A 
HETATM   21  C   UNL     1      24.515  -3.993  19.178  1.00  0.00     0.050 C 
ENDBRANCH  12  14
ENDBRANCH   9  10
BRANCH   1  22
HETATM   22  N   UNL     1      25.189  -4.533  24.970  1.00  0.00    -0.295 N 
ATOM     23  HN  UNL     1      26.200  -4.517  24.840  1.00  0.00     0.177 HD
BRANCH  22  24
HETATM   24  S   UNL     1      24.556  -5.993  25.450  1.00  0.00     0.226 S 
HETATM   25  C   UNL     1      25.895  -7.139  25.463  1.00  0.00     0.186 C 
HETATM   26  O   UNL     1      24.021  -5.880  26.754  1.00  0.00    -0.206 OA
HETATM   27  O   UNL     1      23.603  -6.434  24.475  1.00  0.00    -0.206 OA
ENDBRANCH  22  24
ENDBRANCH   1  22
TORSDOF 4
ENDMDL
