stable:False satoms:8 tatoms:24 sratio:0.3333333333333333
  -OEChem-07092417453D

 24 26  0     1  0  0  0  0  0999 V2000
    6.5432   -4.8508   26.4374 C   0  0  0  0  0  0  0  0  0  0  0  0
    8.1965   -4.3306   26.1192 S   0  0  0  0  0  0  0  0  0  0  0  0
    9.0353   -5.4647   26.0148 O   0  0  0  0  0  0  0  0  0  0  0  0
    8.5850   -3.4255   27.1587 O   0  0  0  0  0  0  0  0  0  0  0  0
    8.1661   -3.5156   24.6712 N   0  0  0  0  0  0  0  0  0  0  0  0
    8.9751   -2.9136   24.1768 C   0  0  0  0  0  0  0  0  0  0  0  0
    9.4798   -1.8441   23.4400 C   0  0  0  0  0  0  0  0  0  0  0  0
   10.4110   -1.0098   23.3367 C   0  0  1  0  0  0  0  0  0  0  0  0
   10.8223   -0.2160   24.2080 C   0  0  0  0  0  0  0  0  0  0  0  0
   12.4772    0.3865   24.2707 C   0  0  0  0  0  0  0  0  0  0  0  0
   13.0372   -0.1381   23.5795 C   0  0  0  0  0  0  0  0  0  0  0  0
   12.7224   -1.1799   22.6779 C   0  0  0  0  0  0  0  0  0  0  0  0
   11.8466   -1.5802   22.5511 C   0  0  0  0  0  0  0  0  0  0  0  0
    9.5900   -0.7284   22.4070 C   0  0  0  0  0  0  0  0  0  0  0  0
    9.0146    0.0258   21.3673 C   0  0  0  0  0  0  0  0  0  0  0  0
    9.5291    0.9875   20.9730 O   0  0  0  0  0  0  0  0  0  0  0  0
    7.9075   -0.5718   21.0936 N   0  0  0  0  0  0  0  0  0  0  0  0
    7.1931   -0.1358   20.1709 C   0  0  0  0  0  0  0  0  0  0  0  0
    7.1779   -0.0272   18.8626 C   0  0  0  0  0  0  0  0  0  0  0  0
    6.7512    0.2573   17.7418 N   0  0  0  0  0  0  0  0  0  0  0  0
    5.6658    0.8382   18.2328 C   0  0  0  0  0  0  0  0  0  0  0  0
    5.2982    0.9516   19.3800 C   0  0  0  0  0  0  0  0  0  0  0  0
    5.8050    0.5390   20.5413 C   0  0  0  0  0  0  0  0  0  0  0  0
    5.3541    0.6560   21.8844 C   0  0  0  0  0  0  0  0  0  0  0  0
 20 21  2  0  0  0  0
 19 20  1  0  0  0  0
 21 22  1  0  0  0  0
 18 19  2  0  0  0  0
 22 23  2  0  0  0  0
 18 23  1  0  0  0  0
 17 18  1  0  0  0  0
 23 24  1  0  0  0  0
 15 16  2  0  0  0  0
 15 17  1  0  0  0  0
 14 15  1  0  0  0  0
  8 14  1  0  0  0  0
  7 14  2  0  0  0  0
 12 13  1  0  0  0  0
  8 13  1  0  0  0  0
 11 12  2  0  0  0  0
  7  8  1  0  0  0  0
  8  9  1  0  0  0  0
  6  7  1  0  0  0  0
 10 11  1  0  0  0  0
  5  6  1  0  0  0  0
  9 10  2  0  0  0  0
  2  5  1  0  0  0  0
  2  3  2  0  0  0  0
  1  2  1  0  0  0  0
  2  4  2  0  0  0  0
M  END
> <Shapegauss>
-286.802887

$$$$
