stable:False satoms:20 tatoms:24 sratio:0.8333333333333334
  -OEChem-07092417353D

 24 24  0     1  0  0  0  0  0999 V2000
    7.0794   -4.0061   26.2826 H   0  0  0  0  0  0  0  0  0  0  0  0
    8.5716   -3.1343   26.7524 H   0  0  0  0  0  0  0  0  0  0  0  0
    8.6994   -4.7806   26.1235 H   0  0  0  0  0  0  0  0  0  0  0  0
    8.1437   -3.8245   26.0402 C   0  0  0  0  0  0  0  0  0  0  0  0
    8.1781   -3.3312   24.7376 O   0  0  0  0  0  0  0  0  0  0  0  0
    8.7586   -2.2557   24.2161 N   0  0  0  0  0  0  0  0  0  0  0  0
   10.4344   -1.4441   22.9279 N   0  0  0  0  0  0  0  0  0  0  0  0
   10.0589   -2.2486   23.9912 C   0  0  0  0  0  0  0  0  0  0  0  0
   10.5836    0.6112   23.3107 H   0  0  0  0  0  0  0  0  0  0  0  0
   12.3380   -0.9430   23.7761 H   0  0  0  0  0  0  0  0  0  0  0  0
   12.4817   -1.3503   22.0215 H   0  0  0  0  0  0  0  0  0  0  0  0
   11.8490   -1.1536   22.8418 C   0  0  0  0  0  0  0  0  0  0  0  0
   10.9258   -2.8968   24.5378 O   0  0  0  0  0  0  0  0  0  0  0  0
   10.4562   -0.1923   22.6102 C   0  0  1  0  0  0  0  0  0  0  0  0
    8.8217    0.1710   21.1070 C   0  0  0  0  0  0  0  0  0  0  0  0
    9.8709    0.3837   21.4088 N   0  3  0  0  0  0  0  0  0  0  0  0
    7.4820   -1.2815   20.5592 H   0  0  0  0  0  0  0  0  0  0  0  0
    7.4928   -0.2115   20.7800 C   0  0  0  0  0  0  0  0  0  0  0  0
    7.2845    0.5167   19.6059 O   0  0  0  0  0  0  0  0  0  0  0  0
    6.1225    0.9230   18.0161 H   0  0  0  0  0  0  0  0  0  0  0  0
    6.0478    0.9415   19.1051 C   0  0  0  0  0  0  0  0  0  0  0  0
    5.8363    1.9597   19.4303 H   0  0  0  0  0  0  0  0  0  0  0  0
    5.2636    0.3051   19.4912 H   0  0  0  0  0  0  0  0  0  0  0  0
    6.8034   -0.0477   21.6233 H   0  0  0  0  0  0  0  0  0  0  0  0
 20 21  1  0  0  0  0
 21 22  1  0  0  0  0
 21 23  1  0  0  0  0
 19 21  1  0  0  0  0
 18 19  1  0  0  0  0
 17 18  1  0  0  0  0
 15 18  1  0  0  0  0
 18 24  1  0  0  0  0
 15 16  1  0  0  0  0
 14 16  1  0  0  0  0
 11 12  1  0  0  0  0
 12 14  1  0  0  0  0
  7 14  1  0  0  0  0
  9 14  1  0  0  0  0
  7 12  1  0  0  0  0
 10 12  1  0  0  0  0
  7  8  1  0  0  0  0
  6  8  1  0  0  0  0
  8 13  2  0  0  0  0
  5  6  1  0  0  0  0
  4  5  1  0  0  0  0
  3  4  1  0  0  0  0
  1  4  1  0  0  0  0
  2  4  1  0  0  0  0
M  CHG  1  16   1
M  END
> <Shapegauss>
-142.840485

$$$$
