stable:False satoms:20 tatoms:24 sratio:0.8333333333333334
  -OEChem-08062403273D

 29 29  0     1  0  0  0  0  0999 V2000
  -12.9107   -3.8259  -23.6382 H   0  0  0  0  0  0  0  0  0  0  0  0
  -12.5600   -2.7499  -25.0262 H   0  0  0  0  0  0  0  0  0  0  0  0
  -14.0852   -2.5596  -24.1545 H   0  0  0  0  0  0  0  0  0  0  0  0
  -13.0084   -2.8015  -24.0449 C   0  0  0  0  0  0  0  0  0  0  0  0
  -12.3886   -1.9491  -23.1335 O   0  0  0  0  0  0  0  0  0  0  0  0
  -11.4651   -1.0072  -23.2930 N   0  0  0  0  0  0  0  0  0  0  0  0
  -11.0074    1.2098  -23.3340 N   0  0  0  0  0  0  0  0  0  0  0  0
  -11.7976    0.1683  -23.7919 C   0  0  0  0  0  0  0  0  0  0  0  0
   -9.1410    1.4502  -24.2570 H   0  0  0  0  0  0  0  0  0  0  0  0
  -11.1720    2.3397  -25.1480 H   0  0  0  0  0  0  0  0  0  0  0  0
  -11.3844    3.3895  -23.6926 H   0  0  0  0  0  0  0  0  0  0  0  0
  -11.1195    2.4448  -24.0790 C   0  0  0  0  0  0  0  0  0  0  0  0
  -12.7261    0.4469  -24.5204 O   0  0  0  0  0  0  0  0  0  0  0  0
   -9.7834    1.6150  -23.4128 C   0  0  1  0  0  0  0  0  0  0  0  0
   -8.7918    1.2178  -21.4324 C   0  0  0  0  0  0  0  0  0  0  0  0
   -8.9225    1.9247  -22.2812 N   0  3  0  0  0  0  0  0  0  0  0  0
   -9.7284    0.2133  -19.9098 H   0  0  0  0  0  0  0  0  0  0  0  0
   -8.7405    0.2723  -20.3729 C   0  0  0  0  0  0  0  0  0  0  0  0
   -7.8445    0.8949  -19.5000 O   0  0  0  0  0  0  0  0  0  0  0  0
   -6.9346    0.9343  -17.7074 H   0  0  0  0  0  0  0  0  0  0  0  0
   -7.0298    0.2558  -18.5574 C   0  0  0  0  0  0  0  0  0  0  0  0
   -6.0414    0.0679  -18.9755 H   0  0  0  0  0  0  0  0  0  0  0  0
   -7.4615   -0.7003  -18.2955 H   0  0  0  0  0  0  0  0  0  0  0  0
   -8.4938   -0.7365  -20.7398 H   0  0  0  0  0  0  0  0  0  0  0  0
  -10.5164   -1.1895  -23.0346 H   0  0  0  0  0  0  0  0  0  0  0  0
   -8.5509    2.0427  -20.7457 H   0  0  0  0  0  0  0  0  0  0  0  0
   -7.8633    0.8212  -21.8690 H   0  0  0  0  0  0  0  0  0  0  0  0
   -9.2721    2.7747  -21.8871 H   0  0  0  0  0  0  0  0  0  0  0  0
   -8.0098    2.0826  -22.6580 H   0  0  0  0  0  0  0  0  0  0  0  0
 20 21  1  0  0  0  0
 21 22  1  0  0  0  0
 21 23  1  0  0  0  0
 19 21  1  0  0  0  0
 18 19  1  0  0  0  0
 17 18  1  0  0  0  0
 15 18  1  0  0  0  0
 18 24  1  0  0  0  0
 15 16  1  0  0  0  0
 14 16  1  0  0  0  0
 11 12  1  0  0  0  0
 12 14  1  0  0  0  0
  7 14  1  0  0  0  0
  9 14  1  0  0  0  0
  7 12  1  0  0  0  0
 10 12  1  0  0  0  0
  7  8  1  0  0  0  0
  6  8  1  0  0  0  0
  8 13  2  0  0  0  0
  5  6  1  0  0  0  0
  4  5  1  0  0  0  0
  3  4  1  0  0  0  0
  1  4  1  0  0  0  0
  2  4  1  0  0  0  0
  6 25  1  0  0  0  0
 15 26  1  0  0  0  0
 15 27  1  0  0  0  0
 16 28  1  0  0  0  0
 16 29  1  0  0  0  0
M  CHG  1  16   1
M  END
> <Chemgauss4>
-5.088707

$$$$
