MODEL 1
REMARK VINA RESULT:    -5.293      0.000      0.000
REMARK INTER + INTRA:          -6.862
REMARK INTER:                  -6.531
REMARK INTRA:                  -0.331
REMARK UNBOUND:                -0.331
REMARK  4 active torsions:
REMARK  status: ('A' for Active; 'I' for Inactive)
REMARK    1  A    between atoms: C_3  and  C_4 
REMARK    2  A    between atoms: C_6  and  C_13 
REMARK    3  A    between atoms: C_13  and  O_16 
REMARK    4  A    between atoms: C_14  and  O_16 
ROOT
HETATM    1  C   UNL     1       6.948   0.125  19.685  1.00  0.00     0.183 A 
HETATM    2  C   UNL     1       8.385  -2.463  22.412  1.00  0.00     0.055 C 
HETATM    3  C   UNL     1       7.057  -2.170  22.138  1.00  0.00     0.098 C 
HETATM    4  C   UNL     1       9.377  -1.529  21.963  1.00  0.00     0.091 C 
HETATM    5  O   UNL     1       7.843   0.672  20.267  1.00  0.00    -0.283 OA
HETATM    6  N   UNL     1       8.922  -0.449  21.435  1.00  0.00    -0.339 N 
ATOM      7  HN  UNL     1       9.482   0.393  21.299  1.00  0.00     0.164 HD
HETATM    8  O   UNL     1       6.552  -1.152  21.611  1.00  0.00    -0.288 OA
HETATM    9  C   UNL     1       7.624  -0.550  21.079  1.00  0.00     0.315 A 
ENDROOT
BRANCH   1  10
HETATM   10  C   UNL     1       6.246   0.183  18.445  1.00  0.00     0.182 C 
HETATM   11  O   UNL     1       5.879  -0.824  17.856  1.00  0.00    -0.291 OA
HETATM   12  C   UNL     1       6.050   1.435  17.615  1.00  0.00     0.099 C 
ENDBRANCH   1  10
BRANCH   3  13
HETATM   13  C   UNL     1       5.820  -3.050  22.675  1.00  0.00     0.171 C 
BRANCH  13  14
HETATM   14  O   UNL     1       4.995  -3.868  22.125  1.00  0.00    -0.361 OA
BRANCH  14  15
HETATM   15  C   UNL     1       5.525  -5.291  22.266  1.00  0.00     0.170 C 
HETATM   16  C   UNL     1       6.484  -5.755  21.499  1.00  0.00     0.034 C 
ENDBRANCH  14  15
ENDBRANCH  13  14
ENDBRANCH   3  13
TORSDOF 4
ENDMDL
MODEL 2
REMARK VINA RESULT:    -5.142      3.294      5.745
REMARK INTER + INTRA:          -6.676
REMARK INTER:                  -6.350
REMARK INTRA:                  -0.326
REMARK UNBOUND:                -0.331
REMARK  4 active torsions:
REMARK  status: ('A' for Active; 'I' for Inactive)
REMARK    1  A    between atoms: C_3  and  C_4 
REMARK    2  A    between atoms: C_6  and  C_13 
REMARK    3  A    between atoms: C_13  and  O_16 
REMARK    4  A    between atoms: C_14  and  O_16 
ROOT
HETATM    1  C   UNL     1      10.941   1.214  22.975  1.00  0.00     0.183 A 
HETATM    2  C   UNL     1       7.240   2.133  21.690  1.00  0.00     0.055 C 
HETATM    3  C   UNL     1       8.081   1.140  21.211  1.00  0.00     0.098 C 
HETATM    4  C   UNL     1       7.829   3.184  22.469  1.00  0.00     0.091 C 
HETATM    5  O   UNL     1      10.880   2.408  22.872  1.00  0.00    -0.283 OA
HETATM    6  N   UNL     1       9.111   3.154  22.560  1.00  0.00    -0.339 N 
ATOM      7  HN  UNL     1       9.674   3.949  22.862  1.00  0.00     0.164 HD
HETATM    8  O   UNL     1       9.328   1.041  21.283  1.00  0.00    -0.288 OA
HETATM    9  C   UNL     1       9.630   1.958  22.212  1.00  0.00     0.315 A 
ENDROOT
BRANCH   1  10
HETATM   10  C   UNL     1      11.678   0.207  23.667  1.00  0.00     0.182 C 
HETATM   11  O   UNL     1      12.443   0.473  24.582  1.00  0.00    -0.291 OA
HETATM   12  C   UNL     1      11.772  -1.245  23.244  1.00  0.00     0.099 C 
ENDBRANCH   1  10
BRANCH   3  13
HETATM   13  C   UNL     1       7.601  -0.039  20.225  1.00  0.00     0.171 C 
BRANCH  13  14
HETATM   14  O   UNL     1       6.469  -0.593  19.976  1.00  0.00    -0.361 OA
BRANCH  14  15
HETATM   15  C   UNL     1       6.092  -0.344  18.519  1.00  0.00     0.170 C 
HETATM   16  C   UNL     1       5.800   0.855  18.071  1.00  0.00     0.034 C 
ENDBRANCH  14  15
ENDBRANCH  13  14
ENDBRANCH   3  13
TORSDOF 4
ENDMDL
MODEL 3
REMARK VINA RESULT:    -5.019      3.239      5.066
REMARK INTER + INTRA:          -6.523
REMARK INTER:                  -6.174
REMARK INTRA:                  -0.349
REMARK UNBOUND:                -0.331
REMARK  4 active torsions:
REMARK  status: ('A' for Active; 'I' for Inactive)
REMARK    1  A    between atoms: C_3  and  C_4 
REMARK    2  A    between atoms: C_6  and  C_13 
REMARK    3  A    between atoms: C_13  and  O_16 
REMARK    4  A    between atoms: C_14  and  O_16 
ROOT
HETATM    1  C   UNL     1       7.113   0.434  19.338  1.00  0.00     0.183 A 
HETATM    2  C   UNL     1       9.107   0.461  22.835  1.00  0.00     0.055 C 
HETATM    3  C   UNL     1       8.403   1.504  22.252  1.00  0.00     0.098 C 
HETATM    4  C   UNL     1       9.489  -0.634  21.992  1.00  0.00     0.091 C 
HETATM    5  O   UNL     1       8.176  -0.091  19.153  1.00  0.00    -0.283 OA
HETATM    6  N   UNL     1       9.227  -0.489  20.742  1.00  0.00    -0.339 N 
ATOM      7  HN  UNL     1       9.650  -1.056  20.006  1.00  0.00     0.164 HD
HETATM    8  O   UNL     1       8.098   1.696  21.052  1.00  0.00    -0.288 OA
HETATM    9  C   UNL     1       8.332   0.494  20.508  1.00  0.00     0.315 A 
ENDROOT
BRANCH   1  10
HETATM   10  C   UNL     1       5.798   0.475  18.790  1.00  0.00     0.182 C 
HETATM   11  O   UNL     1       5.496  -0.135  17.774  1.00  0.00    -0.291 OA
HETATM   12  C   UNL     1       4.695   1.407  19.248  1.00  0.00     0.099 C 
ENDBRANCH   1  10
BRANCH   3  13
HETATM   13  C   UNL     1       8.006   2.858  23.029  1.00  0.00     0.171 C 
BRANCH  13  14
HETATM   14  O   UNL     1       8.566   4.006  23.174  1.00  0.00    -0.361 OA
BRANCH  14  15
HETATM   15  C   UNL     1       9.773   3.868  24.096  1.00  0.00     0.170 C 
HETATM   16  C   UNL     1      11.003   3.873  23.638  1.00  0.00     0.034 C 
ENDBRANCH  14  15
ENDBRANCH  13  14
ENDBRANCH   3  13
TORSDOF 4
ENDMDL
MODEL 4
REMARK VINA RESULT:    -4.984      2.639      4.551
REMARK INTER + INTRA:          -6.481
REMARK INTER:                  -6.196
REMARK INTRA:                  -0.285
REMARK UNBOUND:                -0.331
REMARK  4 active torsions:
REMARK  status: ('A' for Active; 'I' for Inactive)
REMARK    1  A    between atoms: C_3  and  C_4 
REMARK    2  A    between atoms: C_6  and  C_13 
REMARK    3  A    between atoms: C_13  and  O_16 
REMARK    4  A    between atoms: C_14  and  O_16 
ROOT
HETATM    1  C   UNL     1      10.792  -0.468  22.890  1.00  0.00     0.183 A 
HETATM    2  C   UNL     1       7.130  -1.259  21.419  1.00  0.00     0.055 C 
HETATM    3  C   UNL     1       7.919  -2.076  22.214  1.00  0.00     0.098 C 
HETATM    4  C   UNL     1       7.775  -0.174  20.738  1.00  0.00     0.091 C 
HETATM    5  O   UNL     1      10.787  -0.142  21.735  1.00  0.00    -0.283 OA
HETATM    6  N   UNL     1       9.054  -0.130  20.852  1.00  0.00    -0.339 N 
ATOM      7  HN  UNL     1       9.657   0.420  20.240  1.00  0.00     0.164 HD
HETATM    8  O   UNL     1       9.160  -2.074  22.385  1.00  0.00    -0.288 OA
HETATM    9  C   UNL     1       9.512  -0.889  21.869  1.00  0.00     0.315 A 
ENDROOT
BRANCH   1  10
HETATM   10  C   UNL     1      11.484  -0.193  24.106  1.00  0.00     0.182 C 
HETATM   11  O   UNL     1      10.925   0.296  25.077  1.00  0.00    -0.291 OA
HETATM   12  C   UNL     1      12.986  -0.268  24.287  1.00  0.00     0.099 C 
ENDBRANCH   1  10
BRANCH   3  13
HETATM   13  C   UNL     1       7.376  -3.403  22.947  1.00  0.00     0.171 C 
BRANCH  13  14
HETATM   14  O   UNL     1       7.919  -4.503  23.329  1.00  0.00    -0.361 OA
BRANCH  14  15
HETATM   15  C   UNL     1       7.144  -5.680  22.746  1.00  0.00     0.170 C 
HETATM   16  C   UNL     1       6.798  -5.728  21.481  1.00  0.00     0.034 C 
ENDBRANCH  14  15
ENDBRANCH  13  14
ENDBRANCH   3  13
TORSDOF 4
ENDMDL
MODEL 5
REMARK VINA RESULT:    -4.930     22.517     25.881
REMARK INTER + INTRA:          -6.414
REMARK INTER:                  -6.067
REMARK INTRA:                  -0.348
REMARK UNBOUND:                -0.331
REMARK  4 active torsions:
REMARK  status: ('A' for Active; 'I' for Inactive)
REMARK    1  A    between atoms: C_3  and  C_4 
REMARK    2  A    between atoms: C_6  and  C_13 
REMARK    3  A    between atoms: C_13  and  O_16 
REMARK    4  A    between atoms: C_14  and  O_16 
ROOT
HETATM    1  C   UNL     1       9.316  13.739   3.696  1.00  0.00     0.183 A 
HETATM    2  C   UNL     1       9.554  17.749   3.460  1.00  0.00     0.055 C 
HETATM    3  C   UNL     1       9.387  16.847   2.420  1.00  0.00     0.098 C 
HETATM    4  C   UNL     1      10.049  17.241   4.706  1.00  0.00     0.091 C 
HETATM    5  O   UNL     1      10.232  14.088   4.388  1.00  0.00    -0.283 OA
HETATM    6  N   UNL     1      10.390  16.001   4.703  1.00  0.00    -0.339 N 
ATOM      7  HN  UNL     1      10.974  15.574   5.422  1.00  0.00     0.164 HD
HETATM    8  O   UNL     1       9.677  15.630   2.358  1.00  0.00    -0.288 OA
HETATM    9  C   UNL     1       9.891  15.327   3.646  1.00  0.00     0.315 A 
ENDROOT
BRANCH   1  10
HETATM   10  C   UNL     1       8.404  12.652   3.547  1.00  0.00     0.182 C 
HETATM   11  O   UNL     1       8.589  11.569   4.083  1.00  0.00    -0.291 OA
HETATM   12  C   UNL     1       7.242  12.621   2.576  1.00  0.00     0.099 C 
ENDBRANCH   1  10
BRANCH   3  13
HETATM   13  C   UNL     1       8.957  17.274   0.928  1.00  0.00     0.171 C 
BRANCH  13  14
HETATM   14  O   UNL     1       9.515  17.962  -0.003  1.00  0.00    -0.361 OA
BRANCH  14  15
HETATM   15  C   UNL     1       8.981  19.391   0.034  1.00  0.00     0.170 C 
HETATM   16  C   UNL     1       9.637  20.364   0.621  1.00  0.00     0.034 C 
ENDBRANCH  14  15
ENDBRANCH  13  14
ENDBRANCH   3  13
TORSDOF 4
ENDMDL
MODEL 6
REMARK VINA RESULT:    -4.904      2.311      5.355
REMARK INTER + INTRA:          -6.381
REMARK INTER:                  -6.084
REMARK INTRA:                  -0.298
REMARK UNBOUND:                -0.331
REMARK  4 active torsions:
REMARK  status: ('A' for Active; 'I' for Inactive)
REMARK    1  A    between atoms: C_3  and  C_4 
REMARK    2  A    between atoms: C_6  and  C_13 
REMARK    3  A    between atoms: C_13  and  O_16 
REMARK    4  A    between atoms: C_14  and  O_16 
ROOT
HETATM    1  C   UNL     1       6.387  -3.857  21.826  1.00  0.00     0.183 A 
HETATM    2  C   UNL     1       8.507  -0.455  21.461  1.00  0.00     0.055 C 
HETATM    3  C   UNL     1       8.814  -1.567  22.230  1.00  0.00     0.098 C 
HETATM    4  C   UNL     1       7.150  -0.309  21.018  1.00  0.00     0.091 C 
HETATM    5  O   UNL     1       5.619  -2.940  21.915  1.00  0.00    -0.283 OA
HETATM    6  N   UNL     1       6.323  -1.182  21.471  1.00  0.00    -0.339 N 
ATOM      7  HN  UNL     1       5.309  -1.066  21.446  1.00  0.00     0.164 HD
HETATM    8  O   UNL     1       8.064  -2.461  22.685  1.00  0.00    -0.288 OA
HETATM    9  C   UNL     1       6.939  -2.268  21.983  1.00  0.00     0.315 A 
ENDROOT
BRANCH   1  10
HETATM   10  C   UNL     1       6.411  -5.243  21.488  1.00  0.00     0.182 C 
HETATM   11  O   UNL     1       5.709  -5.710  20.603  1.00  0.00    -0.291 OA
HETATM   12  C   UNL     1       7.121  -6.319  22.285  1.00  0.00     0.099 C 
ENDBRANCH   1  10
BRANCH   3  13
HETATM   13  C   UNL     1      10.256  -1.816  22.905  1.00  0.00     0.171 C 
BRANCH  13  14
HETATM   14  O   UNL     1      11.420  -1.294  22.750  1.00  0.00    -0.361 OA
BRANCH  14  15
HETATM   15  C   UNL     1      11.484   0.033  23.500  1.00  0.00     0.170 C 
HETATM   16  C   UNL     1      11.261   0.113  24.792  1.00  0.00     0.034 C 
ENDBRANCH  14  15
ENDBRANCH  13  14
ENDBRANCH   3  13
TORSDOF 4
ENDMDL
MODEL 7
REMARK VINA RESULT:    -4.880      2.277      5.691
REMARK INTER + INTRA:          -6.353
REMARK INTER:                  -6.036
REMARK INTRA:                  -0.316
REMARK UNBOUND:                -0.331
REMARK  4 active torsions:
REMARK  status: ('A' for Active; 'I' for Inactive)
REMARK    1  A    between atoms: C_3  and  C_4 
REMARK    2  A    between atoms: C_6  and  C_13 
REMARK    3  A    between atoms: C_13  and  O_16 
REMARK    4  A    between atoms: C_14  and  O_16 
ROOT
HETATM    1  C   UNL     1       6.907  -3.045  22.415  1.00  0.00     0.183 A 
HETATM    2  C   UNL     1       7.720   0.091  20.027  1.00  0.00     0.055 C 
HETATM    3  C   UNL     1       8.406  -0.308  21.164  1.00  0.00     0.098 C 
HETATM    4  C   UNL     1       6.389  -0.409  19.844  1.00  0.00     0.091 C 
HETATM    5  O   UNL     1       5.872  -2.481  22.193  1.00  0.00    -0.283 OA
HETATM    6  N   UNL     1       5.920  -1.105  20.818  1.00  0.00    -0.339 N 
ATOM      7  HN  UNL     1       4.928  -1.313  20.938  1.00  0.00     0.164 HD
HETATM    8  O   UNL     1       8.017  -0.998  22.135  1.00  0.00    -0.288 OA
HETATM    9  C   UNL     1       6.882  -1.531  21.664  1.00  0.00     0.315 A 
ENDROOT
BRANCH   1  10
HETATM   10  C   UNL     1       7.400  -4.326  22.801  1.00  0.00     0.182 C 
HETATM   11  O   UNL     1       8.231  -4.465  23.687  1.00  0.00    -0.291 OA
HETATM   12  C   UNL     1       7.133  -5.619  22.058  1.00  0.00     0.099 C 
ENDBRANCH   1  10
BRANCH   3  13
HETATM   13  C   UNL     1       9.857   0.256  21.577  1.00  0.00     0.171 C 
BRANCH  13  14
HETATM   14  O   UNL     1      10.449   1.389  21.445  1.00  0.00    -0.361 OA
BRANCH  14  15
HETATM   15  C   UNL     1      10.462   2.112  22.787  1.00  0.00     0.170 C 
HETATM   16  C   UNL     1      10.396   1.465  23.928  1.00  0.00     0.034 C 
ENDBRANCH  14  15
ENDBRANCH  13  14
ENDBRANCH   3  13
TORSDOF 4
ENDMDL
MODEL 8
REMARK VINA RESULT:    -4.871     22.491     23.696
REMARK INTER + INTRA:          -6.341
REMARK INTER:                  -5.997
REMARK INTRA:                  -0.344
REMARK UNBOUND:                -0.331
REMARK  4 active torsions:
REMARK  status: ('A' for Active; 'I' for Inactive)
REMARK    1  A    between atoms: C_3  and  C_4 
REMARK    2  A    between atoms: C_6  and  C_13 
REMARK    3  A    between atoms: C_13  and  O_16 
REMARK    4  A    between atoms: C_14  and  O_16 
ROOT
HETATM    1  C   UNL     1      10.506  15.338   4.937  1.00  0.00     0.183 A 
HETATM    2  C   UNL     1       8.145  14.143   1.904  1.00  0.00     0.055 C 
HETATM    3  C   UNL     1       8.235  13.596   3.175  1.00  0.00     0.098 C 
HETATM    4  C   UNL     1       9.222  14.983   1.466  1.00  0.00     0.091 C 
HETATM    5  O   UNL     1      11.178  15.312   3.944  1.00  0.00    -0.283 OA
HETATM    6  N   UNL     1      10.225  15.062   2.267  1.00  0.00    -0.339 N 
ATOM      7  HN  UNL     1      11.143  15.410   1.990  1.00  0.00     0.164 HD
HETATM    8  O   UNL     1       9.168  13.651   4.009  1.00  0.00    -0.288 OA
HETATM    9  C   UNL     1       9.931  14.634   3.512  1.00  0.00     0.315 A 
ENDROOT
BRANCH   1  10
HETATM   10  C   UNL     1      10.466  15.958   6.221  1.00  0.00     0.182 C 
HETATM   11  O   UNL     1      10.186  15.336   7.236  1.00  0.00    -0.291 OA
HETATM   12  C   UNL     1      10.553  17.450   6.468  1.00  0.00     0.099 C 
ENDBRANCH   1  10
BRANCH   3  13
HETATM   13  C   UNL     1       7.174  12.540   3.769  1.00  0.00     0.171 C 
BRANCH  13  14
HETATM   14  O   UNL     1       6.588  11.497   3.300  1.00  0.00    -0.361 OA
BRANCH  14  15
HETATM   15  C   UNL     1       5.112  11.804   3.070  1.00  0.00     0.170 C 
HETATM   16  C   UNL     1       4.691  12.426   1.994  1.00  0.00     0.034 C 
ENDBRANCH  14  15
ENDBRANCH  13  14
ENDBRANCH   3  13
TORSDOF 4
ENDMDL
MODEL 9
REMARK VINA RESULT:    -4.797      5.296      8.029
REMARK INTER + INTRA:          -6.250
REMARK INTER:                  -5.915
REMARK INTRA:                  -0.335
REMARK UNBOUND:                -0.331
REMARK  4 active torsions:
REMARK  status: ('A' for Active; 'I' for Inactive)
REMARK    1  A    between atoms: C_3  and  C_4 
REMARK    2  A    between atoms: C_6  and  C_13 
REMARK    3  A    between atoms: C_13  and  O_16 
REMARK    4  A    between atoms: C_14  and  O_16 
ROOT
HETATM    1  C   UNL     1       6.086  -5.479  28.562  1.00  0.00     0.183 A 
HETATM    2  C   UNL     1       7.903  -4.962  25.008  1.00  0.00     0.055 C 
HETATM    3  C   UNL     1       6.574  -5.280  25.242  1.00  0.00     0.098 C 
HETATM    4  C   UNL     1       8.835  -5.176  26.077  1.00  0.00     0.091 C 
HETATM    5  O   UNL     1       7.128  -6.072  28.598  1.00  0.00    -0.283 OA
HETATM    6  N   UNL     1       8.355  -5.746  27.124  1.00  0.00    -0.339 N 
ATOM      7  HN  UNL     1       8.932  -6.176  27.847  1.00  0.00     0.164 HD
HETATM    8  O   UNL     1       6.040  -5.815  26.242  1.00  0.00    -0.288 OA
HETATM    9  C   UNL     1       7.006  -5.712  27.164  1.00  0.00     0.315 A 
ENDROOT
BRANCH   1  10
HETATM   10  C   UNL     1       5.128  -4.885  29.436  1.00  0.00     0.182 C 
HETATM   11  O   UNL     1       5.370  -4.663  30.613  1.00  0.00    -0.291 OA
HETATM   12  C   UNL     1       3.670  -4.651  29.096  1.00  0.00     0.099 C 
ENDBRANCH   1  10
BRANCH   3  13
HETATM   13  C   UNL     1       5.427  -5.213  24.113  1.00  0.00     0.171 C 
BRANCH  13  14
HETATM   14  O   UNL     1       5.343  -4.671  22.951  1.00  0.00    -0.361 OA
BRANCH  14  15
HETATM   15  C   UNL     1       5.758  -5.684  21.888  1.00  0.00     0.170 C 
HETATM   16  C   UNL     1       7.014  -5.867  21.554  1.00  0.00     0.034 C 
ENDBRANCH  14  15
ENDBRANCH  13  14
ENDBRANCH   3  13
TORSDOF 4
ENDMDL
