stable:False satoms:19 tatoms:24 sratio:0.7916666666666666
  -OEChem-08052414003D

 24 24  0     0  0  0  0  0  0999 V2000
   -5.5527    1.1543  -20.4297 C   0  0  0  0  0  0  0  0  0  0  0  0
   -9.6697    1.8047  -21.7535 C   0  0  0  0  0  2  0  0  0  0  0  0
   -8.7006    0.2923  -19.5537 H   0  0  0  0  0  0  0  0  0  0  0  0
  -11.6213    0.6188  -24.6220 C   0  0  0  0  0  0  0  0  0  0  0  0
   -7.6453    0.5457  -19.4486 C   0  0  0  0  0  0  0  0  0  0  0  0
   -5.3408   -0.4107  -17.4551 H   0  0  0  0  0  0  0  0  0  0  0  0
  -10.5811    2.9770  -23.5137 O   0  0  0  0  0  0  0  0  0  0  0  0
   -8.5926    2.4524  -21.8326 N   0  3  0  0  0  0  0  0  0  0  0  0
   -7.3987    2.1598  -21.4931 C   0  0  0  0  0  2  0  0  0  0  0  0
   -4.9173    1.5176  -21.2326 H   0  0  0  0  0  0  0  0  0  0  0  0
  -12.6728    0.8811  -24.5150 H   0  0  0  0  0  0  0  0  0  0  0  0
   -5.7690    0.0731  -18.3280 C   0  0  0  0  0  0  0  0  0  0  0  0
   -6.9261    1.2633  -20.4717 C   0  0  0  0  0  0  0  0  0  0  0  0
  -10.8431   -0.1271  -22.7962 H   0  0  0  0  0  0  0  0  0  0  0  0
  -11.5397   -0.3768  -25.0397 H   0  0  0  0  0  0  0  0  0  0  0  0
   -4.9553    0.5692  -19.3346 C   0  0  0  0  0  0  0  0  0  0  0  0
  -11.1514    1.3351  -25.2921 H   0  0  0  0  0  0  0  0  0  0  0  0
   -7.0842    0.1675  -18.3296 N   0  0  0  0  0  0  0  0  0  0  0  0
  -10.4462    1.8923  -22.9456 C   0  0  0  0  0  0  0  0  0  0  0  0
   -3.6023    0.5393  -19.3493 O   0  0  0  0  0  0  0  0  0  0  0  0
  -10.9706    0.7041  -23.3466 N   0  0  0  0  0  0  0  0  0  0  0  0
   -3.2437    0.2190  -18.5255 H   0  0  0  0  0  0  0  0  0  0  0  0
   -8.7839    3.2914  -21.3232 H   0  0  0  0  0  0  0  0  0  0  0  0
   -8.5157    2.6641  -22.8069 H   0  0  0  0  0  0  0  0  0  0  0  0
  6 12  1  0  0  0  0
 12 18  2  0  0  0  0
  5 18  1  0  0  0  0
 12 16  1  0  0  0  0
 20 22  1  0  0  0  0
  3  5  1  0  0  0  0
  5 13  2  0  0  0  0
 16 20  1  0  0  0  0
  1 16  2  0  0  0  0
  1 13  1  0  0  0  0
  9 13  1  0  0  0  0
  1 10  1  0  0  0  0
  8  9  1  0  0  0  0
  2  8  1  0  0  0  0
  2 19  1  0  0  0  0
  7 19  2  0  0  0  0
 19 21  1  0  0  0  0
 14 21  1  0  0  0  0
  4 21  1  0  0  0  0
  4 11  1  0  0  0  0
  4 15  1  0  0  0  0
  4 17  1  0  0  0  0
  8 23  1  0  0  0  0
  8 24  1  0  0  0  0
M  CHG  1   8   1
M  END
> <Chemgauss4>
-7.289553

$$$$
