stable:False satoms:19 tatoms:24 sratio:0.7916666666666666
  -OEChem-08052414003D

 24 24  0     0  0  0  0  0  0999 V2000
    5.8717    1.9563   20.4746 C   0  0  0  0  0  0  0  0  0  0  0  0
   10.0400    1.3831   21.6670 C   0  0  0  0  0  2  0  0  0  0  0  0
    8.5586    0.0963   19.6140 H   0  0  0  0  0  0  0  0  0  0  0  0
   11.6483   -0.1458   24.5859 C   0  0  0  0  0  0  0  0  0  0  0  0
    7.6301    0.6579   19.5079 C   0  0  0  0  0  0  0  0  0  0  0  0
    5.0607    0.3288   17.6399 H   0  0  0  0  0  0  0  0  0  0  0  0
   11.3428    2.3344   23.3105 O   0  0  0  0  0  0  0  0  0  0  0  0
    9.2205    2.3381   21.7132 N   0  3  0  0  0  0  0  0  0  0  0  0
    7.9814    2.4090   21.4200 C   0  0  0  0  0  2  0  0  0  0  0  0
    5.4144    2.5554   21.2570 H   0  0  0  0  0  0  0  0  0  0  0  0
   12.7239   -0.2325   24.4391 H   0  0  0  0  0  0  0  0  0  0  0  0
    5.6540    0.7155   18.4631 C   0  0  0  0  0  0  0  0  0  0  0  0
    7.2119    1.6345   20.4828 C   0  0  0  0  0  0  0  0  0  0  0  0
   10.6011   -0.7393   22.8404 H   0  0  0  0  0  0  0  0  0  0  0  0
   11.2805   -1.0341   25.0837 H   0  0  0  0  0  0  0  0  0  0  0  0
    5.0770    1.5105   19.4411 C   0  0  0  0  0  0  0  0  0  0  0  0
   11.4517    0.7269   25.2046 H   0  0  0  0  0  0  0  0  0  0  0  0
    6.9328    0.3951   18.4333 N   0  0  0  0  0  0  0  0  0  0  0  0
   10.8551    1.3085   22.8340 C   0  0  0  0  0  0  0  0  0  0  0  0
    3.7830    1.9050   19.4826 O   0  0  0  0  0  0  0  0  0  0  0  0
   11.0026    0.0475   23.3197 N   0  0  0  0  0  0  0  0  0  0  0  0
    3.3084    1.6550   18.6939 H   0  0  0  0  0  0  0  0  0  0  0  0
    9.6402    3.0374   21.1347 H   0  0  0  0  0  0  0  0  0  0  0  0
    9.2540    2.6317   22.6686 H   0  0  0  0  0  0  0  0  0  0  0  0
  6 12  1  0  0  0  0
 12 18  2  0  0  0  0
  5 18  1  0  0  0  0
 12 16  1  0  0  0  0
 20 22  1  0  0  0  0
  3  5  1  0  0  0  0
  5 13  2  0  0  0  0
 16 20  1  0  0  0  0
  1 16  2  0  0  0  0
  1 13  1  0  0  0  0
  9 13  1  0  0  0  0
  1 10  1  0  0  0  0
  8  9  1  0  0  0  0
  2  8  1  0  0  0  0
  2 19  1  0  0  0  0
  7 19  2  0  0  0  0
 19 21  1  0  0  0  0
 14 21  1  0  0  0  0
  4 21  1  0  0  0  0
  4 11  1  0  0  0  0
  4 15  1  0  0  0  0
  4 17  1  0  0  0  0
  8 23  1  0  0  0  0
  8 24  1  0  0  0  0
M  CHG  1   8   1
M  END
> <Chemgauss4>
-7.315667

$$$$
