stable:False satoms:7 tatoms:24 sratio:0.2916666666666667
  -OEChem-07092417483D

 24 25  0     1  0  0  0  0  0999 V2000
    6.6455   -4.8989   26.4313 C   0  0  0  0  0  0  0  0  0  0  0  0
    8.1707   -4.3363   26.1118 S   0  0  0  0  0  0  0  0  0  0  0  0
    9.0701   -5.4716   26.0380 O   0  0  0  0  0  0  0  0  0  0  0  0
    8.5698   -3.4551   27.1756 O   0  0  0  0  0  0  0  0  0  0  0  0
    8.0758   -3.5844   24.6908 N   0  0  0  0  0  0  0  0  0  0  0  0
    8.9730   -2.9168   24.1324 C   0  0  0  0  0  0  0  0  0  0  0  0
    9.4337   -1.9624   23.4887 C   0  0  0  0  0  0  0  0  0  0  0  0
   10.3315   -1.1415   23.2721 C   0  0  1  0  0  0  0  0  0  0  0  0
   11.0495   -0.0154   24.3418 C   0  0  0  0  0  0  0  0  0  0  0  0
   12.0222    0.3057   24.2978 C   0  0  0  0  0  0  0  0  0  0  0  0
   13.2141   -0.1906   23.4203 C   0  0  0  0  0  0  0  0  0  0  0  0
   12.7257   -1.2182   22.7034 C   0  0  0  0  0  0  0  0  0  0  0  0
   11.8072   -1.7001   22.5287 C   0  0  0  0  0  0  0  0  0  0  0  0
    9.7458   -0.5698   22.3749 C   0  0  0  0  0  0  0  0  0  0  0  0
    9.0790    0.0444   21.3781 C   0  0  0  0  0  0  0  0  0  0  0  0
    9.5555    0.9736   20.9474 O   0  0  0  0  0  0  0  0  0  0  0  0
    7.9468   -0.5433   21.0640 N   0  0  0  0  0  0  0  0  0  0  0  0
    7.1813   -0.0912   20.1711 C   0  0  0  0  0  0  0  0  0  0  0  0
    7.2125    0.0098   18.8367 C   0  0  0  0  0  0  0  0  0  0  0  0
    6.7808    0.3269   17.7928 N   0  0  0  0  0  0  0  0  0  0  0  0
    5.6232    0.9120   18.2053 C   0  0  0  0  0  0  0  0  0  0  0  0
    5.2425    0.9785   19.3956 C   0  0  0  0  0  0  0  0  0  0  0  0
    5.8243    0.5676   20.5376 C   0  0  0  0  0  0  0  0  0  0  0  0
    5.3035    0.6872   21.9604 C   0  0  0  0  0  0  0  0  0  0  0  0
 20 21  2  0  0  0  0
 19 20  1  0  0  0  0
 21 22  1  0  0  0  0
 18 19  2  0  0  0  0
 22 23  2  0  0  0  0
 18 23  1  0  0  0  0
 17 18  1  0  0  0  0
 23 24  1  0  0  0  0
 15 16  2  0  0  0  0
 15 17  1  0  0  0  0
 14 15  1  0  0  0  0
  8 14  1  0  0  0  0
 12 13  1  0  0  0  0
  8 13  1  0  0  0  0
 11 12  2  0  0  0  0
  7  8  1  0  0  0  0
  8  9  1  0  0  0  0
 10 11  1  0  0  0  0
  6  7  2  3  0  0  0
  5  6  1  0  0  0  0
  9 10  2  0  0  0  0
  2  5  1  0  0  0  0
  2  3  2  0  0  0  0
  1  2  1  0  0  0  0
  2  4  2  0  0  0  0
M  END
> <Shapegauss>
-286.679108

$$$$
