stable:False satoms:7 tatoms:24 sratio:0.2916666666666667
  -OEChem-08062415573D

 45 46  0     1  0  0  0  0  0999 V2000
   -6.2127   -5.2912  -25.8087 C   0  0  0  0  0  0  0  0  0  0  0  0
   -7.7680   -4.7281  -25.7143 S   0  0  0  0  0  0  0  0  0  0  0  0
   -8.6628   -5.8673  -25.6454 O   0  0  0  0  0  0  0  0  0  0  0  0
   -8.0480   -3.9471  -26.8887 O   0  0  0  0  0  0  0  0  0  0  0  0
   -7.8412   -3.8566  -24.3620 N   0  0  0  0  0  0  0  0  0  0  0  0
   -8.8006   -3.1584  -23.9689 C   0  0  0  0  0  0  0  0  0  0  0  0
   -9.3380   -2.1602  -23.4666 C   0  0  0  0  0  0  0  0  0  0  0  0
  -10.2598   -1.3384  -23.4251 C   0  0  1  0  0  0  0  0  0  0  0  0
  -10.8575   -0.3191  -24.6627 C   0  0  0  0  0  0  0  0  0  0  0  0
  -11.8308   -0.0111  -24.7573 C   0  0  0  0  0  0  0  0  0  0  0  0
  -13.1123   -0.4500  -23.9814 C   0  0  0  0  0  0  0  0  0  0  0  0
  -12.7029   -1.4049  -23.1276 C   0  0  0  0  0  0  0  0  0  0  0  0
  -11.8074   -1.8554  -22.8087 C   0  0  0  0  0  0  0  0  0  0  0  0
   -9.7843   -0.6831  -22.5199 C   0  0  0  0  0  0  0  0  0  0  0  0
   -9.2400    0.0243  -21.5106 C   0  0  0  0  0  0  0  0  0  0  0  0
   -9.7685    0.9790  -21.2187 O   0  0  0  0  0  0  0  0  0  0  0  0
   -8.1476   -0.5163  -21.0203 N   0  0  0  0  0  0  0  0  0  0  0  0
   -7.4923    0.0224  -20.0886 C   0  0  0  0  0  0  0  0  0  0  0  0
   -7.6768    0.2360  -18.7801 C   0  0  0  0  0  0  0  0  0  0  0  0
   -7.3695    0.6477  -17.7253 N   0  0  0  0  0  0  0  0  0  0  0  0
   -6.1759    1.2141  -18.0525 C   0  0  0  0  0  0  0  0  0  0  0  0
   -5.6618    1.1852  -19.1932 C   0  0  0  0  0  0  0  0  0  0  0  0
   -6.1063    0.6694  -20.3541 C   0  0  0  0  0  0  0  0  0  0  0  0
   -5.4267    0.6758  -21.7135 C   0  0  0  0  0  0  0  0  0  0  0  0
   -6.0968   -5.8990  -26.7182 H   0  0  0  0  0  0  0  0  0  0  0  0
   -5.5164   -4.4404  -25.8452 H   0  0  0  0  0  0  0  0  0  0  0  0
   -5.9920   -5.9081  -24.9251 H   0  0  0  0  0  0  0  0  0  0  0  0
   -7.0690   -3.2239  -24.4209 H   0  0  0  0  0  0  0  0  0  0  0  0
   -9.6498   -3.7847  -24.1993 H   0  0  0  0  0  0  0  0  0  0  0  0
   -8.6698   -1.8612  -22.6725 H   0  0  0  0  0  0  0  0  0  0  0  0
  -10.1527    0.0278  -25.4038 H   0  0  0  0  0  0  0  0  0  0  0  0
  -11.9964    0.7385  -25.5170 H   0  0  0  0  0  0  0  0  0  0  0  0
  -14.1150   -0.0679  -24.1042 H   0  0  0  0  0  0  0  0  0  0  0  0
  -13.5478   -1.8404  -22.6150 H   0  0  0  0  0  0  0  0  0  0  0  0
  -11.7661   -1.7260  -21.7171 H   0  0  0  0  0  0  0  0  0  0  0  0
  -11.8955   -2.9254  -23.0481 H   0  0  0  0  0  0  0  0  0  0  0  0
  -10.7815   -0.5706  -22.0693 H   0  0  0  0  0  0  0  0  0  0  0  0
   -9.5989    0.1509  -23.2127 H   0  0  0  0  0  0  0  0  0  0  0  0
   -7.8255   -1.3839  -21.3991 H   0  0  0  0  0  0  0  0  0  0  0  0
   -8.6361   -0.2230  -18.5919 H   0  0  0  0  0  0  0  0  0  0  0  0
   -5.6332    1.7255  -17.2713 H   0  0  0  0  0  0  0  0  0  0  0  0
   -4.6921    1.6565  -19.2571 H   0  0  0  0  0  0  0  0  0  0  0  0
   -4.8012   -0.2232  -21.8156 H   0  0  0  0  0  0  0  0  0  0  0  0
   -6.1905    0.6828  -22.5051 H   0  0  0  0  0  0  0  0  0  0  0  0
   -4.7967    1.5730  -21.8040 H   0  0  0  0  0  0  0  0  0  0  0  0
 20 21  2  0  0  0  0
 19 20  1  0  0  0  0
 21 22  1  0  0  0  0
 18 19  2  0  0  0  0
 22 23  2  0  0  0  0
 18 23  1  0  0  0  0
 17 18  1  0  0  0  0
 23 24  1  0  0  0  0
 15 16  2  0  0  0  0
 15 17  1  0  0  0  0
 14 15  1  0  0  0  0
  8 14  1  0  0  0  0
 12 13  1  0  0  0  0
  8 13  1  0  0  0  0
 11 12  2  0  0  0  0
  7  8  1  0  0  0  0
  8  9  1  0  0  0  0
 10 11  1  0  0  0  0
  6  7  2  3  0  0  0
  5  6  1  0  0  0  0
  9 10  2  0  0  0  0
  2  5  1  0  0  0  0
  2  3  2  0  0  0  0
  1  2  1  0  0  0  0
  2  4  2  0  0  0  0
  1 25  1  0  0  0  0
  1 26  1  0  0  0  0
  1 27  1  0  0  0  0
  5 28  1  0  0  0  0
  6 29  1  0  0  0  0
  7 30  1  0  0  0  0
  9 31  1  0  0  0  0
 10 32  1  0  0  0  0
 11 33  1  0  0  0  0
 12 34  1  0  0  0  0
 13 35  1  0  0  0  0
 13 36  1  0  0  0  0
 14 37  1  0  0  0  0
 14 38  1  0  0  0  0
 17 39  1  0  0  0  0
 19 40  1  0  0  0  0
 21 41  1  0  0  0  0
 22 42  1  0  0  0  0
 24 43  1  0  0  0  0
 24 44  1  0  0  0  0
 24 45  1  0  0  0  0
M  END
> <Chemgauss4>
-12.905726

$$$$
