stable:False satoms:7 tatoms:24 sratio:0.2916666666666667
  -OEChem-08062415573D

 45 46  0     1  0  0  0  0  0999 V2000
    6.6764   -5.5910   26.1434 C   0  0  0  0  0  0  0  0  0  0  0  0
    8.1988   -4.9879   25.8916 S   0  0  0  0  0  0  0  0  0  0  0  0
    9.1111   -6.1036   25.7302 O   0  0  0  0  0  0  0  0  0  0  0  0
    8.5769   -4.1985   27.0324 O   0  0  0  0  0  0  0  0  0  0  0  0
    8.1111   -4.1165   24.5401 N   0  0  0  0  0  0  0  0  0  0  0  0
    9.0070   -3.3942   24.0522 C   0  0  0  0  0  0  0  0  0  0  0  0
    9.4643   -2.3831   23.4990 C   0  0  0  0  0  0  0  0  0  0  0  0
   10.3555   -1.5377   23.3648 C   0  0  1  0  0  0  0  0  0  0  0  0
   11.0497   -0.5017   24.5364 C   0  0  0  0  0  0  0  0  0  0  0  0
   12.0193   -0.1685   24.5317 C   0  0  0  0  0  0  0  0  0  0  0  0
   13.2259   -0.5750   23.6285 C   0  0  0  0  0  0  0  0  0  0  0  0
   12.7564   -1.5413   22.8196 C   0  0  0  0  0  0  0  0  0  0  0  0
   11.8450   -2.0152   22.5931 C   0  0  0  0  0  0  0  0  0  0  0  0
    9.7733   -0.8961   22.5138 C   0  0  0  0  0  0  0  0  0  0  0  0
    9.1107   -0.2043   21.5662 C   0  0  0  0  0  0  0  0  0  0  0  0
    9.5818    0.7634   21.2233 O   0  0  0  0  0  0  0  0  0  0  0  0
    7.9884   -0.7736   21.1892 N   0  0  0  0  0  0  0  0  0  0  0  0
    7.2277   -0.2533   20.3300 C   0  0  0  0  0  0  0  0  0  0  0  0
    7.2722   -0.0366   19.0098 C   0  0  0  0  0  0  0  0  0  0  0  0
    6.8483    0.3657   17.9924 N   0  0  0  0  0  0  0  0  0  0  0  0
    5.6801    0.9014   18.4405 C   0  0  0  0  0  0  0  0  0  0  0  0
    5.2859    0.8606   19.6276 C   0  0  0  0  0  0  0  0  0  0  0  0
    5.8598    0.3579   20.7364 C   0  0  0  0  0  0  0  0  0  0  0  0
    5.3225    0.3485   22.1580 C   0  0  0  0  0  0  0  0  0  0  0  0
    6.6697   -6.2004   27.0591 H   0  0  0  0  0  0  0  0  0  0  0  0
    5.9656   -4.7585   26.2519 H   0  0  0  0  0  0  0  0  0  0  0  0
    6.3828   -6.2145   25.2860 H   0  0  0  0  0  0  0  0  0  0  0  0
    7.3329   -3.5040   24.6784 H   0  0  0  0  0  0  0  0  0  0  0  0
    9.8912   -3.9980   24.1938 H   0  0  0  0  0  0  0  0  0  0  0  0
    8.7111   -2.1024   22.7777 H   0  0  0  0  0  0  0  0  0  0  0  0
   10.4154   -0.1722   25.3460 H   0  0  0  0  0  0  0  0  0  0  0  0
   12.2420    0.5861   25.2716 H   0  0  0  0  0  0  0  0  0  0  0  0
   14.2256   -0.1669   23.6489 H   0  0  0  0  0  0  0  0  0  0  0  0
   13.5556   -1.9554   22.2228 H   0  0  0  0  0  0  0  0  0  0  0  0
   11.6892   -1.8883   21.5116 H   0  0  0  0  0  0  0  0  0  0  0  0
   11.9847   -3.0823   22.8207 H   0  0  0  0  0  0  0  0  0  0  0  0
   10.7160   -0.7584   21.9639 H   0  0  0  0  0  0  0  0  0  0  0  0
    9.6380   -0.0663   23.2231 H   0  0  0  0  0  0  0  0  0  0  0  0
    7.7292   -1.6488   21.5977 H   0  0  0  0  0  0  0  0  0  0  0  0
    8.2188   -0.4708   18.7240 H   0  0  0  0  0  0  0  0  0  0  0  0
    5.0475    1.3976   17.7194 H   0  0  0  0  0  0  0  0  0  0  0  0
    4.3160    1.3067   19.7907 H   0  0  0  0  0  0  0  0  0  0  0  0
    4.7341   -0.5663   22.3221 H   0  0  0  0  0  0  0  0  0  0  0  0
    6.1626    0.3762   22.8676 H   0  0  0  0  0  0  0  0  0  0  0  0
    4.6819    1.2291   22.3136 H   0  0  0  0  0  0  0  0  0  0  0  0
 20 21  2  0  0  0  0
 19 20  1  0  0  0  0
 21 22  1  0  0  0  0
 18 19  2  0  0  0  0
 22 23  2  0  0  0  0
 18 23  1  0  0  0  0
 17 18  1  0  0  0  0
 23 24  1  0  0  0  0
 15 16  2  0  0  0  0
 15 17  1  0  0  0  0
 14 15  1  0  0  0  0
  8 14  1  0  0  0  0
 12 13  1  0  0  0  0
  8 13  1  0  0  0  0
 11 12  2  0  0  0  0
  7  8  1  0  0  0  0
  8  9  1  0  0  0  0
 10 11  1  0  0  0  0
  6  7  2  3  0  0  0
  5  6  1  0  0  0  0
  9 10  2  0  0  0  0
  2  5  1  0  0  0  0
  2  3  2  0  0  0  0
  1  2  1  0  0  0  0
  2  4  2  0  0  0  0
  1 25  1  0  0  0  0
  1 26  1  0  0  0  0
  1 27  1  0  0  0  0
  5 28  1  0  0  0  0
  6 29  1  0  0  0  0
  7 30  1  0  0  0  0
  9 31  1  0  0  0  0
 10 32  1  0  0  0  0
 11 33  1  0  0  0  0
 12 34  1  0  0  0  0
 13 35  1  0  0  0  0
 13 36  1  0  0  0  0
 14 37  1  0  0  0  0
 14 38  1  0  0  0  0
 17 39  1  0  0  0  0
 19 40  1  0  0  0  0
 21 41  1  0  0  0  0
 22 42  1  0  0  0  0
 24 43  1  0  0  0  0
 24 44  1  0  0  0  0
 24 45  1  0  0  0  0
M  END
> <Chemgauss4>
-12.713233

$$$$
