stable:False satoms:7 tatoms:24 sratio:0.2916666666666667
  -OEChem-08062413543D

 45 45  0     1  0  0  0  0  0999 V2000
    6.2536   -5.2731   26.2560 C   0  0  0  0  0  0  0  0  0  0  0  0
    7.8886   -4.6312   26.0405 S   0  0  0  0  0  0  0  0  0  0  0  0
    8.7634   -5.7937   26.0028 O   0  0  0  0  0  0  0  0  0  0  0  0
    8.1528   -3.7807   27.1662 O   0  0  0  0  0  0  0  0  0  0  0  0
    7.8476   -3.8689   24.6273 N   0  0  0  0  0  0  0  0  0  0  0  0
    8.7385   -3.1306   24.1747 C   0  0  0  0  0  0  0  0  0  0  0  0
    9.2382   -2.2267   23.6382 C   0  0  0  0  0  0  0  0  0  0  0  0
   10.0944   -1.2857   23.4699 C   0  0  2  0  0  0  0  0  0  0  0  0
   10.7428   -0.2627   24.5983 C   0  0  0  0  0  0  0  0  0  0  0  0
   11.7884    0.0601   24.6316 C   0  0  0  0  0  0  0  0  0  0  0  0
   12.9010   -0.4067   23.8672 C   0  0  0  0  0  0  0  0  0  0  0  0
   12.5876   -1.3649   23.0363 C   0  0  0  0  0  0  0  0  0  0  0  0
   11.6957   -1.8918   22.7573 C   0  0  0  0  0  0  0  0  0  0  0  0
    9.5528   -0.7421   22.5554 C   0  0  0  0  0  0  0  0  0  0  0  0
    8.9382   -0.0858   21.5704 C   0  0  0  0  0  0  0  0  0  0  0  0
    9.4127    0.9005   21.2358 O   0  0  0  0  0  0  0  0  0  0  0  0
    7.8259   -0.7485   21.1866 N   0  0  0  0  0  0  0  0  0  0  0  0
    7.1924   -0.2557   20.2414 C   0  0  0  0  0  0  0  0  0  0  0  0
    7.2777   -0.0738   19.0049 C   0  0  0  0  0  0  0  0  0  0  0  0
    6.8981    0.2945   17.8456 N   0  0  0  0  0  0  0  0  0  0  0  0
    5.8108    0.7587   18.2268 C   0  0  0  0  0  0  0  0  0  0  0  0
    5.2856    0.8304   19.3803 C   0  0  0  0  0  0  0  0  0  0  0  0
    5.7240    0.3986   20.5595 C   0  0  0  0  0  0  0  0  0  0  0  0
    5.3185    0.4403   21.5507 C   0  0  0  0  0  0  0  0  0  0  0  0
    6.1952   -5.8159   27.2110 H   0  0  0  0  0  0  0  0  0  0  0  0
    5.5317   -4.4432   26.2613 H   0  0  0  0  0  0  0  0  0  0  0  0
    6.0174   -5.9593   25.4294 H   0  0  0  0  0  0  0  0  0  0  0  0
    7.0253   -3.3007   24.6585 H   0  0  0  0  0  0  0  0  0  0  0  0
   10.9918   -1.7736   23.0617 H   0  0  0  0  0  0  0  0  0  0  0  0
   10.0813    0.1167   25.3631 H   0  0  0  0  0  0  0  0  0  0  0  0
   12.0099    0.8419   25.3430 H   0  0  0  0  0  0  0  0  0  0  0  0
   13.6688   -0.7817   24.5599 H   0  0  0  0  0  0  0  0  0  0  0  0
   13.3080    0.4371   23.2906 H   0  0  0  0  0  0  0  0  0  0  0  0
   13.4490   -1.7178   22.4888 H   0  0  0  0  0  0  0  0  0  0  0  0
   11.7397   -2.6695   22.0091 H   0  0  0  0  0  0  0  0  0  0  0  0
   10.7539   -1.6445   23.2245 H   0  0  0  0  0  0  0  0  0  0  0  0
    8.8640   -1.5918   22.4391 H   0  0  0  0  0  0  0  0  0  0  0  0
   10.4373   -0.8974   21.9200 H   0  0  0  0  0  0  0  0  0  0  0  0
    7.5297   -1.5895   21.6394 H   0  0  0  0  0  0  0  0  0  0  0  0
    8.2640   -0.4615   18.7966 H   0  0  0  0  0  0  0  0  0  0  0  0
    5.2043    1.1752   17.4362 H   0  0  0  0  0  0  0  0  0  0  0  0
    4.3250    1.3232   19.4089 H   0  0  0  0  0  0  0  0  0  0  0  0
    4.7232   -0.4646   21.7423 H   0  0  0  0  0  0  0  0  0  0  0  0
    6.1394    0.5003   22.2804 H   0  0  0  0  0  0  0  0  0  0  0  0
    4.6767    1.3285   21.6471 H   0  0  0  0  0  0  0  0  0  0  0  0
 20 21  2  0  0  0  0
 19 20  1  0  0  0  0
 21 22  1  0  0  0  0
 18 19  2  0  0  0  0
 22 23  2  0  0  0  0
 18 23  1  0  0  0  0
 17 18  1  0  0  0  0
 23 24  1  0  0  0  0
 15 16  2  0  0  0  0
 15 17  1  0  0  0  0
 14 15  1  0  0  0  0
  8 14  1  0  0  0  0
 12 13  2  0  0  0  0
 11 12  1  0  0  0  0
  7  8  1  0  0  0  0
  8  9  1  0  0  0  0
 10 11  1  0  0  0  0
  6  7  3  0  0  0  0
  5  6  1  0  0  0  0
  9 10  2  0  0  0  0
  2  5  1  0  0  0  0
  2  3  2  0  0  0  0
  1  2  1  0  0  0  0
  2  4  2  0  0  0  0
  1 25  1  0  0  0  0
  1 26  1  0  0  0  0
  1 27  1  0  0  0  0
  5 28  1  0  0  0  0
  8 29  1  0  0  0  0
  9 30  1  0  0  0  0
 10 31  1  0  0  0  0
 11 32  1  0  0  0  0
 11 33  1  0  0  0  0
 12 34  1  0  0  0  0
 13 35  1  0  0  0  0
 13 36  1  0  0  0  0
 14 37  1  0  0  0  0
 14 38  1  0  0  0  0
 17 39  1  0  0  0  0
 19 40  1  0  0  0  0
 21 41  1  0  0  0  0
 22 42  1  0  0  0  0
 24 43  1  0  0  0  0
 24 44  1  0  0  0  0
 24 45  1  0  0  0  0
M  END
> <Chemgauss4>
-13.093243

$$$$
