stable:False satoms:7 tatoms:24 sratio:0.2916666666666667
  -OEChem-08062413543D

 45 45  0     1  0  0  0  0  0999 V2000
   -6.4996   -5.2888  -26.3074 C   0  0  0  0  0  0  0  0  0  0  0  0
   -8.1135   -4.6039  -26.0673 S   0  0  0  0  0  0  0  0  0  0  0  0
   -9.0181   -5.7428  -26.0161 O   0  0  0  0  0  0  0  0  0  0  0  0
   -8.3721   -3.7465  -27.1892 O   0  0  0  0  0  0  0  0  0  0  0  0
   -8.0309   -3.8431  -24.6551 N   0  0  0  0  0  0  0  0  0  0  0  0
   -8.8950   -3.0814  -24.1893 C   0  0  0  0  0  0  0  0  0  0  0  0
   -9.3624   -2.1647  -23.6455 C   0  0  0  0  0  0  0  0  0  0  0  0
  -10.1908   -1.2014  -23.4645 C   0  0  2  0  0  0  0  0  0  0  0  0
  -10.8289   -0.1614  -24.5833 C   0  0  0  0  0  0  0  0  0  0  0  0
  -11.8659    0.1889  -24.6008 C   0  0  0  0  0  0  0  0  0  0  0  0
  -12.9788   -0.2483  -23.8195 C   0  0  0  0  0  0  0  0  0  0  0  0
  -12.6782   -1.2146  -22.9932 C   0  0  0  0  0  0  0  0  0  0  0  0
  -11.7966   -1.7649  -22.7275 C   0  0  0  0  0  0  0  0  0  0  0  0
   -9.6211   -0.6724  -22.5585 C   0  0  0  0  0  0  0  0  0  0  0  0
   -8.9745   -0.0328  -21.5831 C   0  0  0  0  0  0  0  0  0  0  0  0
   -9.4175    0.9657  -21.2417 O   0  0  0  0  0  0  0  0  0  0  0  0
   -7.8744   -0.7247  -21.2161 N   0  0  0  0  0  0  0  0  0  0  0  0
   -7.2138   -0.2490  -20.2806 C   0  0  0  0  0  0  0  0  0  0  0  0
   -7.2755   -0.0651  -19.0430 C   0  0  0  0  0  0  0  0  0  0  0  0
   -6.8688    0.2929  -17.8898 N   0  0  0  0  0  0  0  0  0  0  0  0
   -5.7754    0.7281  -18.2875 C   0  0  0  0  0  0  0  0  0  0  0  0
   -5.2661    0.7861  -19.4489 C   0  0  0  0  0  0  0  0  0  0  0  0
   -5.7336    0.3662  -20.6212 C   0  0  0  0  0  0  0  0  0  0  0  0
   -5.3422    0.3973  -21.6185 C   0  0  0  0  0  0  0  0  0  0  0  0
   -6.4700   -5.8328  -27.2630 H   0  0  0  0  0  0  0  0  0  0  0  0
   -5.7561   -4.4783  -26.3239 H   0  0  0  0  0  0  0  0  0  0  0  0
   -6.2691   -5.9812  -25.4843 H   0  0  0  0  0  0  0  0  0  0  0  0
   -7.1945   -3.2968  -24.6989 H   0  0  0  0  0  0  0  0  0  0  0  0
  -11.0945   -1.6654  -23.0426 H   0  0  0  0  0  0  0  0  0  0  0  0
  -10.1692    0.2004  -25.3581 H   0  0  0  0  0  0  0  0  0  0  0  0
  -12.0774    0.9764  -25.3089 H   0  0  0  0  0  0  0  0  0  0  0  0
  -13.7666   -0.6027  -24.5004 H   0  0  0  0  0  0  0  0  0  0  0  0
  -13.3545    0.6059  -23.2370 H   0  0  0  0  0  0  0  0  0  0  0  0
  -13.5403   -1.5446  -22.4325 H   0  0  0  0  0  0  0  0  0  0  0  0
  -11.8497   -2.5413  -21.9786 H   0  0  0  0  0  0  0  0  0  0  0  0
  -10.8557   -1.5427  -23.2090 H   0  0  0  0  0  0  0  0  0  0  0  0
   -8.9534   -1.5401  -22.4524 H   0  0  0  0  0  0  0  0  0  0  0  0
  -10.4996   -0.8043  -21.9098 H   0  0  0  0  0  0  0  0  0  0  0  0
   -7.6075   -1.5732  -21.6730 H   0  0  0  0  0  0  0  0  0  0  0  0
   -8.2685   -0.4266  -18.8198 H   0  0  0  0  0  0  0  0  0  0  0  0
   -5.1462    1.1284  -17.5063 H   0  0  0  0  0  0  0  0  0  0  0  0
   -4.2933    1.2533  -19.4922 H   0  0  0  0  0  0  0  0  0  0  0  0
   -4.7741   -0.5231  -21.8188 H   0  0  0  0  0  0  0  0  0  0  0  0
   -6.1723    0.4791  -22.3356 H   0  0  0  0  0  0  0  0  0  0  0  0
   -4.6786    1.2681  -21.7248 H   0  0  0  0  0  0  0  0  0  0  0  0
 20 21  2  0  0  0  0
 19 20  1  0  0  0  0
 21 22  1  0  0  0  0
 18 19  2  0  0  0  0
 22 23  2  0  0  0  0
 18 23  1  0  0  0  0
 17 18  1  0  0  0  0
 23 24  1  0  0  0  0
 15 16  2  0  0  0  0
 15 17  1  0  0  0  0
 14 15  1  0  0  0  0
  8 14  1  0  0  0  0
 12 13  2  0  0  0  0
 11 12  1  0  0  0  0
  7  8  1  0  0  0  0
  8  9  1  0  0  0  0
 10 11  1  0  0  0  0
  6  7  3  0  0  0  0
  5  6  1  0  0  0  0
  9 10  2  0  0  0  0
  2  5  1  0  0  0  0
  2  3  2  0  0  0  0
  1  2  1  0  0  0  0
  2  4  2  0  0  0  0
  1 25  1  0  0  0  0
  1 26  1  0  0  0  0
  1 27  1  0  0  0  0
  5 28  1  0  0  0  0
  8 29  1  0  0  0  0
  9 30  1  0  0  0  0
 10 31  1  0  0  0  0
 11 32  1  0  0  0  0
 11 33  1  0  0  0  0
 12 34  1  0  0  0  0
 13 35  1  0  0  0  0
 13 36  1  0  0  0  0
 14 37  1  0  0  0  0
 14 38  1  0  0  0  0
 17 39  1  0  0  0  0
 19 40  1  0  0  0  0
 21 41  1  0  0  0  0
 22 42  1  0  0  0  0
 24 43  1  0  0  0  0
 24 44  1  0  0  0  0
 24 45  1  0  0  0  0
M  END
> <Chemgauss4>
-12.843619

$$$$
