stable:False satoms:18 tatoms:24 sratio:0.75
  -OEChem-07092417383D

 24 22  0     1  0  0  0  0  0999 V2000
    7.0427   -4.5931   26.2488 H   0  0  0  0  0  0  0  0  0  0  0  0
    8.0906   -4.2522   26.1436 C   0  0  0  0  0  0  0  0  0  0  0  0
    8.7709   -5.1247   26.1817 H   0  0  0  0  0  0  0  0  0  0  0  0
    8.3619   -3.5615   26.9607 H   0  0  0  0  0  0  0  0  0  0  0  0
    8.1992   -3.6267   24.8643 N   0  0  0  0  0  0  0  0  0  0  0  0
    8.8082   -2.8430   24.2972 C   0  0  0  0  0  0  0  0  0  0  0  0
    9.0951   -1.9360   23.5842 N   0  0  0  0  0  0  0  0  0  0  0  0
   11.2850   -1.1305   22.9185 C   0  0  0  0  0  0  0  0  0  0  0  0
   11.3683    0.3587   23.0685 C   0  0  0  0  0  0  0  0  0  0  0  0
   12.4011    0.6562   23.8512 O   0  0  0  0  0  0  0  0  0  0  0  0
   13.2578    0.3265   23.4658 H   0  0  0  0  0  0  0  0  0  0  0  0
   12.2437   -1.5522   23.3164 H   0  0  0  0  0  0  0  0  0  0  0  0
   11.2444   -1.4662   21.8922 H   0  0  0  0  0  0  0  0  0  0  0  0
   10.0005   -1.4644   23.3546 C   0  0  0  0  0  0  0  0  0  0  0  0
    8.7675   -0.2241   21.3567 H   0  0  0  0  0  0  0  0  0  0  0  0
   10.6674    1.0866   22.3409 O   0  0  0  0  0  0  0  0  0  0  0  0
    7.8507   -0.4368   21.0563 N   0  5  0  0  0  0  0  0  0  0  0  0
    7.0239   -0.0464   20.1229 C   0  0  3  0  0  0  0  0  0  0  0  0
    7.0848   -0.0303   18.7357 C   0  0  0  0  0  0  0  0  0  0  0  0
    7.0818   -0.0036   17.6137 N   0  0  0  0  0  0  0  0  0  0  0  0
    4.7952    0.9363   18.5071 H   0  0  0  0  0  0  0  0  0  0  0  0
    5.6794    0.4342   20.4394 C   0  0  0  0  0  0  0  0  0  0  0  0
    5.0963    0.7231   19.4727 C   0  5  0  0  0  0  0  0  0  0  0  0
    5.3677    0.4802   21.5038 H   0  0  0  0  0  0  0  0  0  0  0  0
 19 20  3  0  0  0  0
 21 23  1  0  0  0  0
 18 19  1  0  0  0  0
 22 23  2  0  0  0  0
 18 22  1  0  0  0  0
 17 18  1  0  0  0  0
 22 24  1  0  0  0  0
 15 17  1  0  0  0  0
  8 13  1  0  0  0  0
  9 16  2  0  0  0  0
  8  9  1  0  0  0  0
  8 12  1  0  0  0  0
  8 14  1  0  0  0  0
  9 10  1  0  0  0  0
  7 14  1  0  0  0  0
 10 11  1  0  0  0  0
  6  7  1  0  0  0  0
  5  6  2  3  0  0  0
  2  5  1  0  0  0  0
  2  3  1  0  0  0  0
  1  2  1  0  0  0  0
  2  4  1  0  0  0  0
M  CHG  2  17  -1  23  -1
M  END
> <Shapegauss>
-174.889648

$$$$
