
 OpenBabel07202414153D

 47 49  0  0  0  0  0  0  0  0999 V2000
    8.2440   -2.0007    6.0660 C   0  0  0  0  0  0  0  0  0  0  0  0
    6.8674   -1.6583    6.0336 O   0  0  0  0  0  0  0  0  0  0  0  0
    5.9689   -2.4838    6.6505 C   0  0  0  0  0  0  0  0  0  0  0  0
    6.3588   -3.4127    7.6312 C   0  0  0  0  0  0  0  0  0  0  0  0
    5.4178   -4.2213    8.2659 C   0  0  0  0  0  0  0  0  0  0  0  0
    4.0704   -4.1044    7.9451 C   0  0  0  0  0  0  0  0  0  0  0  0
    3.6696   -3.1794    6.9782 C   0  0  0  0  0  0  0  0  0  0  0  0
    4.6025   -2.3597    6.3196 C   0  0  0  0  0  0  0  0  0  0  0  0
    4.0125   -1.5250    5.3982 O   0  0  0  0  0  0  0  0  0  0  0  0
    4.8558   -0.6988    4.5900 C   0  0  0  0  0  0  0  0  0  0  0  0
    4.0326    0.2200    3.6676 C   0  0  0  0  0  0  0  0  0  0  0  0
    3.1199    1.1354    4.3321 N   0  0  0  0  0  0  0  0  0  0  0  0
    3.4666    1.8977    5.4219 C   0  0  0  0  0  0  0  0  0  0  0  0
    4.6225    2.0505    5.7972 O   0  0  0  0  0  0  0  0  0  0  0  0
    2.2959    2.3871    6.2349 C   0  0  0  0  0  0  0  0  0  0  0  0
    2.6029    2.3576    7.5434 C   0  0  0  0  0  0  0  0  0  0  0  0
    1.6528    1.6858    8.4498 C   0  0  0  0  0  0  0  0  0  0  0  0
    1.9862    1.3990    9.5972 O   0  0  0  0  0  0  0  0  0  0  0  0
    0.4574    1.2898    7.9243 N   0  0  0  0  0  0  0  0  0  0  0  0
    0.0060    1.6945    6.6688 C   0  0  0  0  0  0  0  0  0  0  0  0
    0.8845    2.3635    5.8032 C   0  0  0  0  0  0  0  0  0  0  0  0
    0.3554    2.9156    4.6226 C   0  0  0  0  0  0  0  0  0  0  0  0
   -0.9987    2.7127    4.3069 C   0  0  0  0  0  0  0  0  0  0  0  0
   -1.8410    1.9681    5.1492 C   0  0  0  0  0  0  0  0  0  0  0  0
   -1.3306    1.4537    6.3262 C   0  0  0  0  0  0  0  0  0  0  0  0
    1.0549    3.5871    3.6545 O   0  0  0  0  0  0  0  0  0  0  0  0
    1.9059    4.6362    4.1082 C   0  0  0  0  0  0  0  0  0  0  0  0
    8.7767   -1.2804    5.4349 H   0  0  0  0  0  0  0  0  0  0  0  0
    8.4092   -2.9985    5.6471 H   0  0  0  0  0  0  0  0  0  0  0  0
    8.6570   -1.9146    7.0756 H   0  0  0  0  0  0  0  0  0  0  0  0
    7.3902   -3.5141    7.9414 H   0  0  0  0  0  0  0  0  0  0  0  0
    5.7312   -4.9273    9.0347 H   0  0  0  0  0  0  0  0  0  0  0  0
    3.3293   -4.7201    8.4505 H   0  0  0  0  0  0  0  0  0  0  0  0
    2.6138   -3.0898    6.7339 H   0  0  0  0  0  0  0  0  0  0  0  0
    5.4706   -1.3439    3.9508 H   0  0  0  0  0  0  0  0  0  0  0  0
    5.4942   -0.0747    5.2167 H   0  0  0  0  0  0  0  0  0  0  0  0
    3.4060   -0.3931    3.0110 H   0  0  0  0  0  0  0  0  0  0  0  0
    4.7032    0.8218    3.0484 H   0  0  0  0  0  0  0  0  0  0  0  0
    2.1905    1.2265    3.9487 H   0  0  0  0  0  0  0  0  0  0  0  0
    3.6122    2.3988    7.9266 H   0  0  0  0  0  0  0  0  0  0  0  0
   -0.1290    0.7487    8.5422 H   0  0  0  0  0  0  0  0  0  0  0  0
   -1.4119    3.1433    3.3942 H   0  0  0  0  0  0  0  0  0  0  0  0
   -2.8772    1.8161    4.8811 H   0  0  0  0  0  0  0  0  0  0  0  0
   -1.9783    0.8911    6.9905 H   0  0  0  0  0  0  0  0  0  0  0  0
    2.0155    5.3533    3.2858 H   0  0  0  0  0  0  0  0  0  0  0  0
    2.9036    4.2508    4.3201 H   0  0  0  0  0  0  0  0  0  0  0  0
    1.4974    5.1738    4.9690 H   0  0  0  0  0  0  0  0  0  0  0  0
  1  2  1  0  0  0  0
  1 28  1  0  0  0  0
  1 29  1  0  0  0  0
  1 30  1  0  0  0  0
  2  3  1  0  0  0  0
  3  4  1  0  0  0  0
  3  8  2  0  0  0  0
  4  5  2  0  0  0  0
  4 31  1  0  0  0  0
  5  6  1  0  0  0  0
  5 32  1  0  0  0  0
  6  7  2  0  0  0  0
  6 33  1  0  0  0  0
  7  8  1  0  0  0  0
  7 34  1  0  0  0  0
  8  9  1  0  0  0  0
  9 10  1  0  0  0  0
 10 11  1  0  0  0  0
 10 35  1  0  0  0  0
 10 36  1  0  0  0  0
 11 12  1  0  0  0  0
 11 37  1  0  0  0  0
 11 38  1  0  0  0  0
 12 13  1  0  0  0  0
 12 39  1  0  0  0  0
 13 14  2  0  0  0  0
 13 15  1  0  0  0  0
 15 16  2  0  0  0  0
 15 21  1  0  0  0  0
 16 17  1  0  0  0  0
 16 40  1  0  0  0  0
 17 18  2  0  0  0  0
 17 19  1  0  0  0  0
 19 20  1  0  0  0  0
 19 41  1  0  0  0  0
 20 21  1  0  0  0  0
 20 25  2  0  0  0  0
 21 22  2  0  0  0  0
 22 23  1  0  0  0  0
 22 26  1  0  0  0  0
 23 24  2  0  0  0  0
 23 42  1  0  0  0  0
 24 25  1  0  0  0  0
 24 43  1  0  0  0  0
 25 44  1  0  0  0  0
 26 27  1  0  0  0  0
 27 45  1  0  0  0  0
 27 46  1  0  0  0  0
 27 47  1  0  0  0  0
M  END
$$$$
