
 OpenBabel07202414153D

 54 59  0  0  1  0  0  0  0  0999 V2000
    2.6832   -0.3759    1.2891 C   0  0  0  0  0  0  0  0  0  0  0  0
    2.4484    0.2511   -0.0793 C   0  0  1  0  0  0  0  0  0  0  0  0
    2.8586    1.7085    0.0103 C   0  0  0  0  0  0  0  0  0  0  0  0
    3.5907    2.0443   -1.1840 N   0  0  0  0  0  0  0  0  0  0  0  0
    4.2478    3.3314   -1.2018 C   0  0  0  0  0  0  0  0  0  0  0  0
    5.5987    3.4388   -1.5343 C   0  0  0  0  0  0  0  0  0  0  0  0
    6.3776    4.5069   -1.2350 N   0  0  0  0  0  0  0  0  0  0  0  0
    5.7794    5.5438   -0.6116 C   0  0  0  0  0  0  0  0  0  0  0  0
    4.4151    5.6290   -0.3538 C   0  0  0  0  0  0  0  0  0  0  0  0
    3.8574    6.7940    0.2141 C   0  0  0  0  0  0  0  0  0  0  0  0
    2.4873    6.8981    0.4366 C   0  0  0  0  0  0  0  0  0  0  0  0
    1.6595    5.8503    0.0682 C   0  0  0  0  0  0  0  0  0  0  0  0
    2.2089    4.6988   -0.5086 C   0  0  0  0  0  0  0  0  0  0  0  0
    3.6080    4.5177   -0.6895 C   0  0  0  0  0  0  0  0  0  0  0  0
    4.0302    0.8711   -1.8306 C   0  0  0  0  0  0  0  0  0  0  0  0
    4.8731    0.7844   -2.7128 O   0  0  0  0  0  0  0  0  0  0  0  0
    3.1815   -0.3337   -1.3156 C   0  0  1  0  0  0  0  0  0  0  0  0
    4.1079   -1.5429   -1.0356 C   0  0  0  0  0  0  0  0  0  0  0  0
    3.3887   -2.8151   -0.8112 N   0  0  0  0  0  0  0  0  0  0  0  0
    3.4751   -3.6125    0.4174 C   0  0  0  0  0  0  0  0  0  0  0  0
    4.7780   -3.6220    1.0972 C   0  0  0  0  0  0  0  0  0  0  0  0
    5.2566   -2.7663    1.9766 N   0  0  0  0  0  0  0  0  0  0  0  0
    6.4231   -3.3191    2.4463 N   0  0  0  0  0  0  0  0  0  0  0  0
    6.6530   -4.4959    1.8808 N   0  0  0  0  0  0  0  0  0  0  0  0
    5.6329   -4.6836    1.0352 N   0  0  0  0  0  0  0  0  0  0  0  0
    2.3469   -3.1765   -1.6565 C   0  0  0  0  0  0  0  0  0  0  0  0
    1.8339   -4.2930   -1.6500 O   0  0  0  0  0  0  0  0  0  0  0  0
    1.7567   -2.1072   -2.5044 C   0  0  0  0  0  0  0  0  0  0  0  0
    0.6798   -2.4764   -3.3309 C   0  0  0  0  0  0  0  0  0  0  0  0
   -0.0642   -1.5055   -3.9936 C   0  0  0  0  0  0  0  0  0  0  0  0
    0.2878   -0.1726   -3.8526 C   0  0  0  0  0  0  0  0  0  0  0  0
   -0.4593    0.7690   -4.4404 F   0  0  0  0  0  0  0  0  0  0  0  0
    1.3745    0.2093   -3.0660 C   0  0  0  0  0  0  0  0  0  0  0  0
    2.1222   -0.7527   -2.3548 C   0  0  0  0  0  0  0  0  0  0  0  0
    2.2507    0.2562    2.0738 H   0  0  0  0  0  0  0  0  0  0  0  0
    3.7462   -0.4880    1.5187 H   0  0  0  0  0  0  0  0  0  0  0  0
    2.1774   -1.3350    1.3616 H   0  0  0  0  0  0  0  0  0  0  0  0
    1.3640    0.2220   -0.2389 H   0  0  0  0  0  0  0  0  0  0  0  0
    3.5275    1.8906    0.8602 H   0  0  0  0  0  0  0  0  0  0  0  0
    1.9616    2.3018    0.1379 H   0  0  0  0  0  0  0  0  0  0  0  0
    6.1506    2.6269   -1.9949 H   0  0  0  0  0  0  0  0  0  0  0  0
    6.4554    6.3463   -0.3249 H   0  0  0  0  0  0  0  0  0  0  0  0
    4.4915    7.6410    0.4718 H   0  0  0  0  0  0  0  0  0  0  0  0
    2.0666    7.8047    0.8657 H   0  0  0  0  0  0  0  0  0  0  0  0
    0.5842    5.9289    0.2108 H   0  0  0  0  0  0  0  0  0  0  0  0
    1.5061    3.9493   -0.8630 H   0  0  0  0  0  0  0  0  0  0  0  0
    4.8149   -1.3403   -0.2278 H   0  0  0  0  0  0  0  0  0  0  0  0
    4.7287   -1.7357   -1.9225 H   0  0  0  0  0  0  0  0  0  0  0  0
    3.1776   -4.6467    0.2043 H   0  0  0  0  0  0  0  0  0  0  0  0
    2.7063   -3.2485    1.1045 H   0  0  0  0  0  0  0  0  0  0  0  0
    5.5646   -5.5458    0.5079 H   0  0  0  0  0  0  0  0  0  0  0  0
    0.3818   -3.5210   -3.4143 H   0  0  0  0  0  0  0  0  0  0  0  0
   -0.9333   -1.7807   -4.5853 H   0  0  0  0  0  0  0  0  0  0  0  0
    1.5803    1.2732   -2.9811 H   0  0  0  0  0  0  0  0  0  0  0  0
  1 35  1  0  0  0  0
  1 36  1  0  0  0  0
  1 37  1  0  0  0  0
  2  3  1  0  0  0  0
  2 17  1  0  0  0  0
  2  1  1  0  0  0  0
  2 38  1  6  0  0  0
  3  4  1  0  0  0  0
  3 39  1  0  0  0  0
  3 40  1  0  0  0  0
  4  5  1  0  0  0  0
  4 15  1  0  0  0  0
  5  6  1  0  0  0  0
  5 14  2  0  0  0  0
  6  7  2  0  0  0  0
  6 41  1  0  0  0  0
  7  8  1  0  0  0  0
  8  9  2  0  0  0  0
  8 42  1  0  0  0  0
  9 10  1  0  0  0  0
  9 14  1  0  0  0  0
 10 11  2  0  0  0  0
 10 43  1  0  0  0  0
 11 12  1  0  0  0  0
 11 44  1  0  0  0  0
 12 13  2  0  0  0  0
 12 45  1  0  0  0  0
 13 14  1  0  0  0  0
 13 46  1  0  0  0  0
 15 16  2  0  0  0  0
 17 15  1  6  0  0  0
 17 18  1  0  0  0  0
 17 34  1  0  0  0  0
 18 19  1  0  0  0  0
 18 47  1  0  0  0  0
 18 48  1  0  0  0  0
 19 20  1  0  0  0  0
 19 26  1  0  0  0  0
 20 21  1  0  0  0  0
 20 49  1  0  0  0  0
 20 50  1  0  0  0  0
 21 22  2  0  0  0  0
 21 25  1  0  0  0  0
 22 23  1  0  0  0  0
 23 24  2  0  0  0  0
 24 25  1  0  0  0  0
 25 51  1  0  0  0  0
 26 27  2  0  0  0  0
 26 28  1  0  0  0  0
 28 29  1  0  0  0  0
 28 34  2  0  0  0  0
 29 30  2  0  0  0  0
 29 52  1  0  0  0  0
 30 31  1  0  0  0  0
 30 53  1  0  0  0  0
 31 32  1  0  0  0  0
 31 33  2  0  0  0  0
 33 34  1  0  0  0  0
 33 54  1  0  0  0  0
M  END
$$$$
