stable:False satoms:19 tatoms:24 sratio:0.7916666666666666
  -OEChem-07092417293D

 24 25  0     1  0  0  0  0  0999 V2000
    6.7158    0.7450   20.9498 H   0  0  0  0  0  0  0  0  0  0  0  0
    7.6247   -0.4199   23.9721 N   0  0  0  0  0  0  0  0  0  0  0  0
    7.2288   -0.1387   22.7951 N   0  0  0  0  0  0  0  0  0  0  0  0
    9.4325   -1.9044   19.7156 O   0  0  0  0  0  0  0  0  0  0  0  0
    5.9025    0.3605   22.9909 C   0  0  0  0  0  0  0  0  0  0  0  0
    8.3756   -1.4972   24.2827 C   0  0  0  0  0  0  0  0  0  0  0  0
    8.4916   -1.8670   20.7923 C   0  0  0  0  0  0  0  0  0  0  0  0
   11.1167   -0.4617   23.6236 H   0  0  0  0  0  0  0  0  0  0  0  0
    7.7670   -2.6828   20.8444 H   0  0  0  0  0  0  0  0  0  0  0  0
    7.9562   -0.9790   20.4657 H   0  0  0  0  0  0  0  0  0  0  0  0
    5.9309   -0.8430   21.1566 H   0  0  0  0  0  0  0  0  0  0  0  0
   10.6916   -1.8447   20.0968 N   0  0  3  0  0  0  0  0  0  0  0  0
   10.6279   -2.0617   21.7490 N   0  0  1  0  0  0  0  0  0  0  0  0
   10.4299   -2.0311   25.2434 H   0  0  0  0  0  0  0  0  0  0  0  0
    9.1026   -2.0973   23.3368 N   0  0  0  0  0  0  0  0  0  0  0  0
   11.3468   -2.0367   24.8585 O   0  0  0  0  0  0  0  0  0  0  0  0
   11.6745   -1.3450   23.8535 C   0  3  0  0  0  0  0  0  0  0  0  0
   12.5219   -1.5680   23.2535 H   0  0  0  0  0  0  0  0  0  0  0  0
    6.4470   -0.0300   21.7019 C   0  0  0  0  0  0  0  0  0  0  0  0
    5.5841    1.4089   23.0705 H   0  0  0  0  0  0  0  0  0  0  0  0
    5.3034   -0.2355   23.6836 H   0  0  0  0  0  0  0  0  0  0  0  0
   11.6122   -1.7960   20.8901 N   0  0  0  0  0  0  0  0  0  0  0  0
    9.3762   -1.9448   22.0626 C   0  0  3  0  0  0  0  0  0  0  0  0
    8.3237   -2.0198   25.9076 S   0  0  0  0  0  0  0  0  0  0  0  0
  4 12  1  0  0  0  0
  4  7  1  0  0  0  0
 12 22  1  0  0  0  0
 12 13  1  0  0  0  0
  7 10  1  0  0  0  0
  7  9  1  0  0  0  0
  7 23  1  0  0  0  0
 13 22  1  0  0  0  0
  1 19  1  0  0  0  0
 11 19  1  0  0  0  0
  3 19  1  0  0  0  0
  5 19  1  0  0  0  0
 13 23  1  0  0  0  0
 15 23  1  0  0  0  0
  3  5  1  0  0  0  0
  2  3  1  0  0  0  0
  5 20  1  0  0  0  0
  5 21  1  0  0  0  0
 17 18  1  0  0  0  0
  6 15  1  0  0  0  0
  8 17  1  0  0  0  0
 16 17  1  0  0  0  0
  2  6  1  0  0  0  0
  6 24  2  0  0  0  0
 14 16  1  0  0  0  0
M  CHG  1  17   1
M  END
> <Shapegauss>
-94.046288

$$$$
