REMARK  3 active torsions:
REMARK  status: ('A' for Active; 'I' for Inactive)
REMARK    1  A    between atoms: N_1  and  N_3 
REMARK    2  A    between atoms: N_1  and  C_6 
REMARK    3  A    between atoms: C_6  and  N_11 
ROOT
HETATM    1  H   UNL     1      10.430  -2.031  25.243  1.00  0.00     0.208 HD
HETATM    2  O   UNL     1      11.347  -2.037  24.858  1.00  0.00    -0.406 OA
HETATM    3  C   UNL     1      11.675  -1.345  23.854  1.00  0.00     0.197 C 
ENDROOT
TORSDOF 3
