MODEL 1
REMARK VINA RESULT:    -8.129      0.000      0.000
REMARK INTER + INTRA:         -10.607
REMARK INTER:                 -10.030
REMARK INTRA:                  -0.578
REMARK UNBOUND:                -0.578
REMARK  4 active torsions:
REMARK  status: ('A' for Active; 'I' for Inactive)
REMARK    1  A    between atoms: S_2  and  N_5 
REMARK    2  A    between atoms: N_5  and  C_7 
REMARK    3  A    between atoms: C_15  and  C_16 
REMARK       I    between atoms: C_16  and  N_18 
REMARK    4  A    between atoms: N_18  and  C_20 
ROOT
HETATM    1  C   UNL     1       6.058  -1.577  20.859  1.00  0.00     0.109 C 
HETATM    2  C   UNL     1       6.598  -2.320  21.704  1.00  0.00    -0.011 A 
HETATM    3  C   UNL     1       6.651  -3.399  22.412  1.00  0.00     0.043 A 
HETATM    4  C   UNL     1       5.377  -3.724  23.525  1.00  0.00     0.051 C 
HETATM    5  C   UNL     1       5.323  -5.040  23.783  1.00  0.00    -0.025 C 
HETATM    6  C   UNL     1       5.717  -5.888  23.301  1.00  0.00    -0.004 C 
HETATM    7  C   UNL     1       6.606  -5.797  22.096  1.00  0.00    -0.003 C 
HETATM    8  C   UNL     1       6.889  -4.838  21.777  1.00  0.00    -0.007 C 
HETATM    9  C   UNL     1       7.698  -2.963  22.843  1.00  0.00     0.036 A 
ENDROOT
BRANCH   9  10
HETATM   10  C   UNL     1       8.903  -2.678  23.444  1.00  0.00     0.254 C 
HETATM   11  O   UNL     1       9.193  -3.277  24.392  1.00  0.00    -0.268 OA
HETATM   12  N   UNL     1       9.520  -1.680  22.827  1.00  0.00    -0.321 N 
ATOM     13  HN  UNL     1       9.081  -1.219  22.030  1.00  0.00     0.169 HD
BRANCH  12  14
HETATM   14  C   UNL     1      10.639  -1.308  23.227  1.00  0.00     0.060 A 
HETATM   15  C   UNL     1      11.907  -1.673  23.051  1.00  0.00     0.117 A 
HETATM   16  N   UNL     1      13.082  -1.511  23.248  1.00  0.00    -0.373 N 
HETATM   17  C   UNL     1      12.966  -0.508  24.016  1.00  0.00     0.088 A 
ATOM     18  HN  UNL     1      13.903  -2.015  22.909  1.00  0.00     0.164 HD
HETATM   19  C   UNL     1      12.016   0.121  24.468  1.00  0.00     0.030 A 
HETATM   20  C   UNL     1      10.703  -0.090  24.197  1.00  0.00    -0.016 A 
HETATM   21  C   UNL     1       9.827   0.417  24.528  1.00  0.00     0.026 C 
ENDBRANCH  12  14
ENDBRANCH   9  10
BRANCH   1  22
HETATM   22  N   UNL     1       5.712  -0.601  20.328  1.00  0.00    -0.295 N 
ATOM     23  HN  UNL     1       4.998  -0.041  20.793  1.00  0.00     0.177 HD
BRANCH  22  24
HETATM   24  S   UNL     1       6.276  -0.063  18.907  1.00  0.00     0.226 S 
HETATM   25  C   UNL     1       5.244   1.580  18.621  1.00  0.00     0.186 C 
HETATM   26  O   UNL     1       7.640   0.326  18.976  1.00  0.00    -0.206 OA
HETATM   27  O   UNL     1       5.950  -0.908  17.818  1.00  0.00    -0.206 OA
ENDBRANCH  22  24
ENDBRANCH   1  22
TORSDOF 4
ENDMDL
MODEL 2
REMARK VINA RESULT:    -8.088      2.206      5.589
REMARK INTER + INTRA:         -10.557
REMARK INTER:                  -9.827
REMARK INTRA:                  -0.730
REMARK UNBOUND:                -0.578
REMARK  4 active torsions:
REMARK  status: ('A' for Active; 'I' for Inactive)
REMARK    1  A    between atoms: S_2  and  N_5 
REMARK    2  A    between atoms: N_5  and  C_7 
REMARK    3  A    between atoms: C_15  and  C_16 
REMARK       I    between atoms: C_16  and  N_18 
REMARK    4  A    between atoms: N_18  and  C_20 
ROOT
HETATM    1  C   UNL     1       9.116  -0.419  21.251  1.00  0.00     0.109 C 
HETATM    2  C   UNL     1       9.568  -0.789  22.354  1.00  0.00    -0.011 A 
HETATM    3  C   UNL     1      10.497  -0.846  23.250  1.00  0.00     0.043 A 
HETATM    4  C   UNL     1      12.003  -1.571  22.838  1.00  0.00     0.051 C 
HETATM    5  C   UNL     1      12.966  -1.116  23.654  1.00  0.00    -0.025 C 
HETATM    6  C   UNL     1      13.035  -0.287  24.299  1.00  0.00    -0.004 C 
HETATM    7  C   UNL     1      11.893   0.656  24.534  1.00  0.00    -0.003 C 
HETATM    8  C   UNL     1      10.975   0.424  24.080  1.00  0.00    -0.007 C 
HETATM    9  C   UNL     1       9.704  -1.489  23.907  1.00  0.00     0.036 A 
ENDROOT
BRANCH   9  10
HETATM   10  C   UNL     1       8.972  -2.210  24.823  1.00  0.00     0.254 C 
HETATM   11  O   UNL     1       8.684  -1.691  25.817  1.00  0.00    -0.268 OA
HETATM   12  N   UNL     1       8.765  -3.449  24.400  1.00  0.00    -0.321 N 
ATOM     13  HN  UNL     1       9.153  -3.759  23.508  1.00  0.00     0.169 HD
BRANCH  12  14
HETATM   14  C   UNL     1       8.096  -4.233  25.097  1.00  0.00     0.060 A 
HETATM   15  C   UNL     1       8.295  -4.998  26.168  1.00  0.00     0.117 A 
HETATM   16  N   UNL     1       7.886  -5.757  27.006  1.00  0.00    -0.373 N 
HETATM   17  C   UNL     1       6.693  -5.822  26.576  1.00  0.00     0.088 A 
ATOM     18  HN  UNL     1       8.345  -6.202  27.801  1.00  0.00     0.164 HD
HETATM   19  C   UNL     1       6.096  -5.330  25.626  1.00  0.00     0.030 A 
HETATM   20  C   UNL     1       6.600  -4.458  24.716  1.00  0.00    -0.016 A 
HETATM   21  C   UNL     1       6.150  -3.973  23.882  1.00  0.00     0.026 C 
ENDBRANCH  12  14
ENDBRANCH   9  10
BRANCH   1  22
HETATM   22  N   UNL     1       8.520  -0.446  20.252  1.00  0.00    -0.295 N 
ATOM     23  HN  UNL     1       8.859  -1.069  19.519  1.00  0.00     0.177 HD
BRANCH  22  24
HETATM   24  S   UNL     1       7.192   0.427  19.935  1.00  0.00     0.226 S 
HETATM   25  C   UNL     1       5.770  -0.922  19.933  1.00  0.00     0.186 C 
HETATM   26  O   UNL     1       6.880   1.339  20.978  1.00  0.00    -0.206 OA
HETATM   27  O   UNL     1       7.185   0.984  18.633  1.00  0.00    -0.206 OA
ENDBRANCH  22  24
ENDBRANCH   1  22
TORSDOF 4
ENDMDL
MODEL 3
REMARK VINA RESULT:    -8.029      2.702      6.383
REMARK INTER + INTRA:         -10.484
REMARK INTER:                  -9.874
REMARK INTRA:                  -0.610
REMARK UNBOUND:                -0.578
REMARK  4 active torsions:
REMARK  status: ('A' for Active; 'I' for Inactive)
REMARK    1  A    between atoms: S_2  and  N_5 
REMARK    2  A    between atoms: N_5  and  C_7 
REMARK    3  A    between atoms: C_15  and  C_16 
REMARK       I    between atoms: C_16  and  N_18 
REMARK    4  A    between atoms: N_18  and  C_20 
ROOT
HETATM    1  C   UNL     1       8.591  -3.530  23.848  1.00  0.00     0.109 C 
HETATM    2  C   UNL     1       8.996  -2.438  23.398  1.00  0.00    -0.011 A 
HETATM    3  C   UNL     1       9.797  -1.424  23.402  1.00  0.00     0.043 A 
HETATM    4  C   UNL     1       9.850  -0.416  24.797  1.00  0.00     0.051 C 
HETATM    5  C   UNL     1      11.022   0.237  24.842  1.00  0.00    -0.025 C 
HETATM    6  C   UNL     1      11.947   0.095  24.362  1.00  0.00    -0.004 C 
HETATM    7  C   UNL     1      12.171  -0.969  23.329  1.00  0.00    -0.003 C 
HETATM    8  C   UNL     1      11.341  -1.541  23.038  1.00  0.00    -0.007 C 
HETATM    9  C   UNL     1       9.176  -1.039  22.433  1.00  0.00     0.036 A 
ENDROOT
BRANCH   9  10
HETATM   10  C   UNL     1       8.633  -0.427  21.326  1.00  0.00     0.254 C 
HETATM   11  O   UNL     1       9.327   0.236  20.677  1.00  0.00    -0.268 OA
HETATM   12  N   UNL     1       7.335  -0.679  21.229  1.00  0.00    -0.321 N 
ATOM     13  HN  UNL     1       6.868  -1.243  21.938  1.00  0.00     0.169 HD
BRANCH  12  14
HETATM   14  C   UNL     1       6.691  -0.222  20.267  1.00  0.00     0.060 A 
HETATM   15  C   UNL     1       6.375  -0.610  19.034  1.00  0.00     0.117 A 
HETATM   16  N   UNL     1       5.804  -0.429  17.991  1.00  0.00    -0.373 N 
HETATM   17  C   UNL     1       5.312   0.703  18.286  1.00  0.00     0.088 A 
ATOM     18  HN  UNL     1       5.736  -0.999  17.146  1.00  0.00     0.164 HD
HETATM   19  C   UNL     1       5.374   1.435  19.267  1.00  0.00     0.030 A 
HETATM   20  C   UNL     1       6.019   1.175  20.433  1.00  0.00    -0.016 A 
HETATM   21  C   UNL     1       6.105   1.742  21.330  1.00  0.00     0.026 C 
ENDBRANCH  12  14
ENDBRANCH   9  10
BRANCH   1  22
HETATM   22  N   UNL     1       7.855  -4.377  24.154  1.00  0.00    -0.295 N 
ATOM     23  HN  UNL     1       8.086  -4.924  24.983  1.00  0.00     0.177 HD
BRANCH  22  24
HETATM   24  S   UNL     1       6.492  -4.757  23.365  1.00  0.00     0.226 S 
HETATM   25  C   UNL     1       7.135  -5.886  21.896  1.00  0.00     0.186 C 
HETATM   26  O   UNL     1       5.621  -5.566  24.143  1.00  0.00    -0.206 OA
HETATM   27  O   UNL     1       5.875  -3.644  22.743  1.00  0.00    -0.206 OA
ENDBRANCH  22  24
ENDBRANCH   1  22
TORSDOF 4
ENDMDL
MODEL 4
REMARK VINA RESULT:    -7.487      4.211      6.136
REMARK INTER + INTRA:          -9.815
REMARK INTER:                  -9.250
REMARK INTRA:                  -0.566
REMARK UNBOUND:                -0.578
REMARK  4 active torsions:
REMARK  status: ('A' for Active; 'I' for Inactive)
REMARK    1  A    between atoms: S_2  and  N_5 
REMARK    2  A    between atoms: N_5  and  C_7 
REMARK    3  A    between atoms: C_15  and  C_16 
REMARK       I    between atoms: C_16  and  N_18 
REMARK    4  A    between atoms: N_18  and  C_20 
ROOT
HETATM    1  C   UNL     1       5.679  -6.137  26.242  1.00  0.00     0.109 C 
HETATM    2  C   UNL     1       6.276  -5.357  25.471  1.00  0.00    -0.011 A 
HETATM    3  C   UNL     1       6.484  -4.834  24.308  1.00  0.00     0.043 A 
HETATM    4  C   UNL     1       6.974  -5.857  23.013  1.00  0.00     0.051 C 
HETATM    5  C   UNL     1       6.665  -5.285  21.839  1.00  0.00    -0.025 C 
HETATM    6  C   UNL     1       6.018  -4.502  21.565  1.00  0.00    -0.004 C 
HETATM    7  C   UNL     1       5.248  -3.696  22.568  1.00  0.00    -0.003 C 
HETATM    8  C   UNL     1       5.426  -3.892  23.583  1.00  0.00    -0.007 C 
HETATM    9  C   UNL     1       7.326  -4.155  24.860  1.00  0.00     0.036 A 
ENDROOT
BRANCH   9  10
HETATM   10  C   UNL     1       8.301  -3.277  25.274  1.00  0.00     0.254 C 
HETATM   11  O   UNL     1       8.771  -3.440  26.320  1.00  0.00    -0.268 OA
HETATM   12  N   UNL     1       8.497  -2.322  24.375  1.00  0.00    -0.321 N 
ATOM     13  HN  UNL     1       7.939  -2.298  23.522  1.00  0.00     0.169 HD
BRANCH  12  14
HETATM   14  C   UNL     1       9.367  -1.455  24.579  1.00  0.00     0.060 A 
HETATM   15  C   UNL     1       9.606  -0.509  25.484  1.00  0.00     0.117 A 
HETATM   16  N   UNL     1      10.299   0.368  25.927  1.00  0.00    -0.373 N 
HETATM   17  C   UNL     1      11.197   0.312  25.032  1.00  0.00     0.088 A 
ATOM     18  HN  UNL     1      10.199   0.962  26.751  1.00  0.00     0.164 HD
HETATM   19  C   UNL     1      11.359  -0.359  24.020  1.00  0.00     0.030 A 
HETATM   20  C   UNL     1      10.553  -1.356  23.572  1.00  0.00    -0.016 A 
HETATM   21  C   UNL     1      10.630  -1.995  22.724  1.00  0.00     0.026 C 
ENDBRANCH  12  14
ENDBRANCH   9  10
BRANCH   1  22
HETATM   22  N   UNL     1       5.503  -6.877  27.122  1.00  0.00    -0.295 N 
ATOM     23  HN  UNL     1       5.047  -7.764  26.906  1.00  0.00     0.177 HD
BRANCH  22  24
HETATM   24  S   UNL     1       5.926  -6.611  28.664  1.00  0.00     0.226 S 
HETATM   25  C   UNL     1       4.200  -6.591  29.594  1.00  0.00     0.186 C 
HETATM   26  O   UNL     1       6.669  -7.688  29.217  1.00  0.00    -0.206 OA
HETATM   27  O   UNL     1       6.485  -5.328  28.878  1.00  0.00    -0.206 OA
ENDBRANCH  22  24
ENDBRANCH   1  22
TORSDOF 4
ENDMDL
MODEL 5
REMARK VINA RESULT:    -7.342      2.386      5.335
REMARK INTER + INTRA:          -9.636
REMARK INTER:                  -8.931
REMARK INTRA:                  -0.706
REMARK UNBOUND:                -0.578
REMARK  4 active torsions:
REMARK  status: ('A' for Active; 'I' for Inactive)
REMARK    1  A    between atoms: S_2  and  N_5 
REMARK    2  A    between atoms: N_5  and  C_7 
REMARK    3  A    between atoms: C_15  and  C_16 
REMARK       I    between atoms: C_16  and  N_18 
REMARK    4  A    between atoms: N_18  and  C_20 
ROOT
HETATM    1  C   UNL     1       6.806  -0.994  21.467  1.00  0.00     0.109 C 
HETATM    2  C   UNL     1       7.566  -1.510  22.312  1.00  0.00    -0.011 A 
HETATM    3  C   UNL     1       8.642  -1.523  23.027  1.00  0.00     0.043 A 
HETATM    4  C   UNL     1      10.167  -1.539  22.229  1.00  0.00     0.051 C 
HETATM    5  C   UNL     1      11.116  -1.061  23.049  1.00  0.00    -0.025 C 
HETATM    6  C   UNL     1      11.086  -0.495  23.936  1.00  0.00    -0.004 C 
HETATM    7  C   UNL     1       9.803  -0.110  24.610  1.00  0.00    -0.003 C 
HETATM    8  C   UNL     1       8.912  -0.485  24.201  1.00  0.00    -0.007 C 
HETATM    9  C   UNL     1       8.219  -2.563  23.489  1.00  0.00     0.036 A 
ENDROOT
BRANCH   9  10
HETATM   10  C   UNL     1       7.929  -3.730  24.158  1.00  0.00     0.254 C 
HETATM   11  O   UNL     1       8.235  -4.731  23.662  1.00  0.00    -0.268 OA
HETATM   12  N   UNL     1       7.271  -3.486  25.283  1.00  0.00    -0.321 N 
ATOM     13  HN  UNL     1       7.028  -2.528  25.537  1.00  0.00     0.169 HD
BRANCH  12  14
HETATM   14  C   UNL     1       6.952  -4.431  26.026  1.00  0.00     0.060 A 
HETATM   15  C   UNL     1       7.534  -5.169  26.969  1.00  0.00     0.117 A 
HETATM   16  N   UNL     1       7.487  -6.036  27.801  1.00  0.00    -0.373 N 
HETATM   17  C   UNL     1       6.276  -6.362  27.606  1.00  0.00     0.088 A 
ATOM     18  HN  UNL     1       8.188  -6.391  28.451  1.00  0.00     0.164 HD
HETATM   19  C   UNL     1       5.400  -5.987  26.834  1.00  0.00     0.030 A 
HETATM   20  C   UNL     1       5.498  -4.986  25.923  1.00  0.00    -0.016 A 
HETATM   21  C   UNL     1       4.788  -4.588  25.236  1.00  0.00     0.026 C 
ENDBRANCH  12  14
ENDBRANCH   9  10
BRANCH   1  22
HETATM   22  N   UNL     1       6.043  -0.914  20.593  1.00  0.00    -0.295 N 
ATOM     23  HN  UNL     1       5.164  -1.424  20.687  1.00  0.00     0.177 HD
BRANCH  22  24
HETATM   24  S   UNL     1       6.265  -0.055  19.236  1.00  0.00     0.226 S 
HETATM   25  C   UNL     1       4.863   1.310  19.347  1.00  0.00     0.186 C 
HETATM   26  O   UNL     1       7.504   0.640  19.231  1.00  0.00    -0.206 OA
HETATM   27  O   UNL     1       5.987  -0.788  18.057  1.00  0.00    -0.206 OA
ENDBRANCH  22  24
ENDBRANCH   1  22
TORSDOF 4
ENDMDL
MODEL 6
REMARK VINA RESULT:    -7.253      3.367      7.016
REMARK INTER + INTRA:          -9.527
REMARK INTER:                  -8.846
REMARK INTRA:                  -0.680
REMARK UNBOUND:                -0.578
REMARK  4 active torsions:
REMARK  status: ('A' for Active; 'I' for Inactive)
REMARK    1  A    between atoms: S_2  and  N_5 
REMARK    2  A    between atoms: N_5  and  C_7 
REMARK    3  A    between atoms: C_15  and  C_16 
REMARK       I    between atoms: C_16  and  N_18 
REMARK    4  A    between atoms: N_18  and  C_20 
ROOT
HETATM    1  C   UNL     1       8.325  -2.325  25.549  1.00  0.00     0.109 C 
HETATM    2  C   UNL     1       8.771  -1.523  24.703  1.00  0.00    -0.011 A 
HETATM    3  C   UNL     1       9.722  -0.823  24.180  1.00  0.00     0.043 A 
HETATM    4  C   UNL     1      10.490   0.381  25.142  1.00  0.00     0.051 C 
HETATM    5  C   UNL     1      11.713   0.641  24.655  1.00  0.00    -0.025 C 
HETATM    6  C   UNL     1      12.351   0.130  23.992  1.00  0.00    -0.004 C 
HETATM    7  C   UNL     1      11.952  -1.137  23.296  1.00  0.00    -0.003 C 
HETATM    8  C   UNL     1      10.968  -1.475  23.437  1.00  0.00    -0.007 C 
HETATM    9  C   UNL     1       8.897  -0.470  23.362  1.00  0.00     0.036 A 
ENDROOT
BRANCH   9  10
HETATM   10  C   UNL     1       8.143   0.041  22.330  1.00  0.00     0.254 C 
HETATM   11  O   UNL     1       7.755   1.127  22.427  1.00  0.00    -0.268 OA
HETATM   12  N   UNL     1       7.944  -0.870  21.388  1.00  0.00    -0.321 N 
ATOM     13  HN  UNL     1       8.316  -1.814  21.499  1.00  0.00     0.169 HD
BRANCH  12  14
HETATM   14  C   UNL     1       7.302  -0.567  20.366  1.00  0.00     0.060 A 
HETATM   15  C   UNL     1       7.436   0.277  19.346  1.00  0.00     0.117 A 
HETATM   16  N   UNL     1       7.048   0.731  18.301  1.00  0.00    -0.373 N 
HETATM   17  C   UNL     1       5.994   0.029  18.218  1.00  0.00     0.088 A 
ATOM     18  HN  UNL     1       7.438   1.445  17.685  1.00  0.00     0.164 HD
HETATM   19  C   UNL     1       5.471  -0.821  18.929  1.00  0.00     0.030 A 
HETATM   20  C   UNL     1       5.961  -1.316  20.094  1.00  0.00    -0.016 A 
HETATM   21  C   UNL     1       5.585  -2.060  20.756  1.00  0.00     0.026 C 
ENDBRANCH  12  14
ENDBRANCH   9  10
BRANCH   1  22
HETATM   22  N   UNL     1       7.579  -2.828  26.287  1.00  0.00    -0.295 N 
ATOM     23  HN  UNL     1       6.943  -2.218  26.801  1.00  0.00     0.177 HD
BRANCH  22  24
HETATM   24  S   UNL     1       7.473  -4.421  26.564  1.00  0.00     0.226 S 
HETATM   25  C   UNL     1       6.024  -4.542  27.879  1.00  0.00     0.186 C 
HETATM   26  O   UNL     1       7.040  -5.144  25.421  1.00  0.00    -0.206 OA
HETATM   27  O   UNL     1       8.614  -4.955  27.211  1.00  0.00    -0.206 OA
ENDBRANCH  22  24
ENDBRANCH   1  22
TORSDOF 4
ENDMDL
MODEL 7
REMARK VINA RESULT:    -7.057     14.651     16.799
REMARK INTER + INTRA:          -9.285
REMARK INTER:                  -8.580
REMARK INTRA:                  -0.705
REMARK UNBOUND:                -0.578
REMARK  4 active torsions:
REMARK  status: ('A' for Active; 'I' for Inactive)
REMARK    1  A    between atoms: S_2  and  N_5 
REMARK    2  A    between atoms: N_5  and  C_7 
REMARK    3  A    between atoms: C_15  and  C_16 
REMARK       I    between atoms: C_16  and  N_18 
REMARK    4  A    between atoms: N_18  and  C_20 
ROOT
HETATM    1  C   UNL     1      24.156  -4.108  24.036  1.00  0.00     0.109 C 
HETATM    2  C   UNL     1      23.833  -3.006  23.546  1.00  0.00    -0.011 A 
HETATM    3  C   UNL     1      23.300  -1.832  23.622  1.00  0.00     0.043 A 
HETATM    4  C   UNL     1      21.626  -1.704  24.003  1.00  0.00     0.051 C 
HETATM    5  C   UNL     1      21.367  -0.492  24.518  1.00  0.00    -0.025 C 
HETATM    6  C   UNL     1      21.974   0.263  24.929  1.00  0.00    -0.004 C 
HETATM    7  C   UNL     1      23.470   0.170  24.970  1.00  0.00    -0.003 C 
HETATM    8  C   UNL     1      23.914  -0.659  24.505  1.00  0.00    -0.007 C 
HETATM    9  C   UNL     1      23.643  -1.695  22.466  1.00  0.00     0.036 A 
ENDROOT
BRANCH   9  10
HETATM   10  C   UNL     1      23.950  -1.318  21.178  1.00  0.00     0.254 C 
HETATM   11  O   UNL     1      24.806  -0.552  21.026  1.00  0.00    -0.268 OA
HETATM   12  N   UNL     1      23.133  -1.890  20.305  1.00  0.00    -0.321 N 
ATOM     13  HN  UNL     1      22.383  -2.501  20.628  1.00  0.00     0.169 HD
BRANCH  12  14
HETATM   14  C   UNL     1      23.288  -1.677  19.088  1.00  0.00     0.060 A 
HETATM   15  C   UNL     1      22.949  -0.732  18.214  1.00  0.00     0.117 A 
HETATM   16  N   UNL     1      22.976  -0.273  17.103  1.00  0.00    -0.373 N 
HETATM   17  C   UNL     1      23.650  -1.209  16.573  1.00  0.00     0.088 A 
ATOM     18  HN  UNL     1      22.586   0.586  16.714  1.00  0.00     0.164 HD
HETATM   19  C   UNL     1      24.124  -2.263  16.981  1.00  0.00     0.030 A 
HETATM   20  C   UNL     1      24.083  -2.728  18.255  1.00  0.00    -0.016 A 
HETATM   21  C   UNL     1      24.482  -3.613  18.694  1.00  0.00     0.026 C 
ENDBRANCH  12  14
ENDBRANCH   9  10
BRANCH   1  22
HETATM   22  N   UNL     1      24.364  -5.250  24.106  1.00  0.00    -0.295 N 
ATOM     23  HN  UNL     1      24.695  -5.720  23.263  1.00  0.00     0.177 HD
BRANCH  22  24
HETATM   24  S   UNL     1      24.170  -6.153  25.438  1.00  0.00     0.226 S 
HETATM   25  C   UNL     1      25.909  -5.998  26.330  1.00  0.00     0.186 C 
HETATM   26  O   UNL     1      23.210  -5.607  26.330  1.00  0.00    -0.206 OA
HETATM   27  O   UNL     1      24.010  -7.533  25.161  1.00  0.00    -0.206 OA
ENDBRANCH  22  24
ENDBRANCH   1  22
TORSDOF 4
ENDMDL
MODEL 8
REMARK VINA RESULT:    -7.034      4.097      6.576
REMARK INTER + INTRA:          -9.257
REMARK INTER:                  -8.589
REMARK INTRA:                  -0.668
REMARK UNBOUND:                -0.578
REMARK  4 active torsions:
REMARK  status: ('A' for Active; 'I' for Inactive)
REMARK    1  A    between atoms: S_2  and  N_5 
REMARK    2  A    between atoms: N_5  and  C_7 
REMARK    3  A    between atoms: C_15  and  C_16 
REMARK       I    between atoms: C_16  and  N_18 
REMARK    4  A    between atoms: N_18  and  C_20 
ROOT
HETATM    1  C   UNL     1       9.074  -2.567  24.040  1.00  0.00     0.109 C 
HETATM    2  C   UNL     1       8.241  -3.480  24.214  1.00  0.00    -0.011 A 
HETATM    3  C   UNL     1       7.359  -4.321  23.786  1.00  0.00     0.043 A 
HETATM    4  C   UNL     1       5.942  -3.716  23.017  1.00  0.00     0.051 C 
HETATM    5  C   UNL     1       5.414  -4.663  22.226  1.00  0.00    -0.025 C 
HETATM    6  C   UNL     1       5.790  -5.559  21.822  1.00  0.00    -0.004 C 
HETATM    7  C   UNL     1       7.158  -6.083  22.141  1.00  0.00    -0.003 C 
HETATM    8  C   UNL     1       7.723  -5.555  22.851  1.00  0.00    -0.007 C 
HETATM    9  C   UNL     1       7.278  -4.691  24.940  1.00  0.00     0.036 A 
ENDROOT
BRANCH   9  10
HETATM   10  C   UNL     1       7.040  -5.278  26.162  1.00  0.00     0.254 C 
HETATM   11  O   UNL     1       7.935  -5.761  26.716  1.00  0.00    -0.268 OA
HETATM   12  N   UNL     1       5.752  -5.227  26.473  1.00  0.00    -0.321 N 
ATOM     13  HN  UNL     1       5.084  -4.811  25.824  1.00  0.00     0.169 HD
BRANCH  12  14
HETATM   14  C   UNL     1       5.364  -5.691  27.560  1.00  0.00     0.060 A 
HETATM   15  C   UNL     1       5.233  -6.894  28.115  1.00  0.00     0.117 A 
HETATM   16  N   UNL     1       4.952  -7.592  29.054  1.00  0.00    -0.373 N 
HETATM   17  C   UNL     1       4.605  -6.654  29.836  1.00  0.00     0.088 A 
ATOM     18  HN  UNL     1       4.982  -8.604  29.180  1.00  0.00     0.164 HD
HETATM   19  C   UNL     1       4.531  -5.435  29.733  1.00  0.00     0.030 A 
HETATM   20  C   UNL     1       4.882  -4.690  28.654  1.00  0.00    -0.016 A 
HETATM   21  C   UNL     1       4.867  -3.638  28.491  1.00  0.00     0.026 C 
ENDBRANCH  12  14
ENDBRANCH   9  10
BRANCH   1  22
HETATM   22  N   UNL     1       9.700  -1.608  24.248  1.00  0.00    -0.295 N 
ATOM     23  HN  UNL     1       9.552  -1.134  25.139  1.00  0.00     0.177 HD
BRANCH  22  24
HETATM   24  S   UNL     1      10.790  -0.967  23.233  1.00  0.00     0.226 S 
HETATM   25  C   UNL     1      12.095  -0.154  24.448  1.00  0.00     0.186 C 
HETATM   26  O   UNL     1      11.490  -1.957  22.493  1.00  0.00    -0.206 OA
HETATM   27  O   UNL     1      10.275   0.102  22.461  1.00  0.00    -0.206 OA
ENDBRANCH  22  24
ENDBRANCH   1  22
TORSDOF 4
ENDMDL
MODEL 9
REMARK VINA RESULT:    -6.933      4.252      7.040
REMARK INTER + INTRA:          -9.132
REMARK INTER:                  -8.484
REMARK INTRA:                  -0.648
REMARK UNBOUND:                -0.578
REMARK  4 active torsions:
REMARK  status: ('A' for Active; 'I' for Inactive)
REMARK    1  A    between atoms: S_2  and  N_5 
REMARK    2  A    between atoms: N_5  and  C_7 
REMARK    3  A    between atoms: C_15  and  C_16 
REMARK       I    between atoms: C_16  and  N_18 
REMARK    4  A    between atoms: N_18  and  C_20 
ROOT
HETATM    1  C   UNL     1       7.690   0.923  25.752  1.00  0.00     0.109 C 
HETATM    2  C   UNL     1       8.392   0.805  24.726  1.00  0.00    -0.011 A 
HETATM    3  C   UNL     1       9.481   0.473  24.117  1.00  0.00     0.043 A 
HETATM    4  C   UNL     1      10.947   1.267  24.548  1.00  0.00     0.051 C 
HETATM    5  C   UNL     1      11.996   0.498  24.215  1.00  0.00    -0.025 C 
HETATM    6  C   UNL     1      12.097  -0.522  23.977  1.00  0.00    -0.004 C 
HETATM    7  C   UNL     1      10.926  -1.452  23.872  1.00  0.00    -0.003 C 
HETATM    8  C   UNL     1       9.968  -1.035  23.978  1.00  0.00    -0.007 C 
HETATM    9  C   UNL     1       8.914   0.815  23.100  1.00  0.00     0.036 A 
ENDROOT
BRANCH   9  10
HETATM   10  C   UNL     1       8.467   1.122  21.835  1.00  0.00     0.254 C 
HETATM   11  O   UNL     1       9.055   1.914  21.227  1.00  0.00    -0.268 OA
HETATM   12  N   UNL     1       7.354   0.460  21.548  1.00  0.00    -0.321 N 
ATOM     13  HN  UNL     1       6.935  -0.161  22.240  1.00  0.00     0.169 HD
BRANCH  12  14
HETATM   14  C   UNL     1       6.826   0.600  20.430  1.00  0.00     0.060 A 
HETATM   15  C   UNL     1       6.978   0.090  19.210  1.00  0.00     0.117 A 
HETATM   16  N   UNL     1       6.639   0.004  18.059  1.00  0.00    -0.373 N 
HETATM   17  C   UNL     1       5.698   0.854  18.119  1.00  0.00     0.088 A 
ATOM     18  HN  UNL     1       6.991  -0.564  17.289  1.00  0.00     0.164 HD
HETATM   19  C   UNL     1       5.247   1.574  19.002  1.00  0.00     0.030 A 
HETATM   20  C   UNL     1       5.653   1.619  20.297  1.00  0.00    -0.016 A 
HETATM   21  C   UNL     1       5.306   2.194  21.123  1.00  0.00     0.026 C 
ENDBRANCH  12  14
ENDBRANCH   9  10
BRANCH   1  22
HETATM   22  N   UNL     1       6.913   1.365  26.497  1.00  0.00    -0.295 N 
ATOM     23  HN  UNL     1       6.239   0.721  26.910  1.00  0.00     0.177 HD
BRANCH  22  24
HETATM   24  S   UNL     1       6.817   2.925  26.928  1.00  0.00     0.226 S 
HETATM   25  C   UNL     1       5.046   3.452  26.273  1.00  0.00     0.186 C 
HETATM   26  O   UNL     1       6.794   3.098  28.337  1.00  0.00    -0.206 OA
HETATM   27  O   UNL     1       7.736   3.754  26.240  1.00  0.00    -0.206 OA
ENDBRANCH  22  24
ENDBRANCH   1  22
TORSDOF 4
ENDMDL
