REMARK  4 active torsions:
REMARK  status: ('A' for Active; 'I' for Inactive)
REMARK    1  A    between atoms: S_2  and  N_5 
REMARK    2  A    between atoms: N_5  and  C_7 
REMARK    3  A    between atoms: C_15  and  C_16 
REMARK       I    between atoms: C_16  and  N_18 
REMARK    4  A    between atoms: N_18  and  C_20 
ROOT
HETATM    1  C   UNL     1       8.914  -2.892  24.133  1.00  0.00     0.109 C 
HETATM    2  C   UNL     1       9.427  -1.940  23.509  1.00  0.00    -0.011 A 
HETATM    3  C   UNL     1      10.399  -1.127  23.259  1.00  0.00     0.043 A 
HETATM    4  C   UNL     1      10.951  -0.084  24.513  1.00  0.00     0.051 C 
HETATM    5  C   UNL     1      12.213   0.299  24.264  1.00  0.00    -0.025 C 
HETATM    6  C   UNL     1      12.967  -0.067  23.628  1.00  0.00    -0.004 C 
HETATM    7  C   UNL     1      12.746  -1.206  22.678  1.00  0.00    -0.003 C 
HETATM    8  C   UNL     1      11.774  -1.597  22.612  1.00  0.00    -0.007 C 
HETATM    9  C   UNL     1       9.678  -0.666  22.398  1.00  0.00     0.036 A 
ENDROOT
BRANCH   9  10
HETATM   10  C   UNL     1       9.049  -0.009  21.365  1.00  0.00     0.254 C 
HETATM   11  O   UNL     1       9.581   0.909  20.901  1.00  0.00    -0.268 OA
HETATM   12  N   UNL     1       7.862  -0.543  21.112  1.00  0.00    -0.321 N 
ATOM     13  HN  UNL     1       7.521  -1.324  21.672  1.00  0.00     0.169 HD
BRANCH  12  14
HETATM   14  C   UNL     1       7.167  -0.085  20.187  1.00  0.00     0.060 A 
HETATM   15  C   UNL     1       7.246   0.004  18.861  1.00  0.00     0.117 A 
HETATM   16  N   UNL     1       6.775   0.322  17.801  1.00  0.00    -0.373 N 
HETATM   17  C   UNL     1       5.702   0.821  18.260  1.00  0.00     0.088 A 
ATOM     18  HN  UNL     1       7.123   0.223  16.847  1.00  0.00     0.164 HD
HETATM   19  C   UNL     1       5.244   0.983  19.385  1.00  0.00     0.030 A 
HETATM   20  C   UNL     1       5.808   0.586  20.554  1.00  0.00    -0.016 A 
HETATM   21  C   UNL     1       5.472   0.669  21.561  1.00  0.00     0.026 C 
ENDBRANCH  12  14
ENDBRANCH   9  10
BRANCH   1  22
HETATM   22  N   UNL     1       8.103  -3.541  24.657  1.00  0.00    -0.295 N 
ATOM     23  HN  UNL     1       7.203  -3.638  24.187  1.00  0.00     0.177 HD
BRANCH  22  24
HETATM   24  S   UNL     1       8.291  -4.303  26.075  1.00  0.00     0.226 S 
HETATM   25  C   UNL     1       6.477  -4.925  26.482  1.00  0.00     0.186 C 
HETATM   26  O   UNL     1       9.100  -5.465  25.964  1.00  0.00    -0.206 OA
HETATM   27  O   UNL     1       8.639  -3.433  27.137  1.00  0.00    -0.206 OA
ENDBRANCH  22  24
ENDBRANCH   1  22
TORSDOF 4
