
 OpenBabel07202414153D

 60 64  0  0  1  0  0  0  0  0999 V2000
   -1.0125   -1.9237   -2.8912 C   0  0  0  0  0  0  0  0  0  0  0  0
    0.1259   -0.7533   -2.1941 S   0  0  0  0  0  0  0  0  0  0  0  0
    0.3299    0.3015   -3.1590 O   0  0  0  0  0  0  0  0  0  0  0  0
   -0.3102   -0.4575   -0.8402 O   0  0  0  0  0  0  0  0  0  0  0  0
    1.6407   -1.6721   -2.0769 C   0  0  0  0  0  0  0  0  0  0  0  0
    2.5296   -1.6453   -3.1448 C   0  0  0  0  0  0  0  0  0  0  0  0
    3.7331   -2.3415   -3.0524 C   0  0  0  0  0  0  0  0  0  0  0  0
    4.0812   -3.1182   -1.9204 C   0  0  0  0  0  0  0  0  0  0  0  0
    5.2531   -3.9047   -1.7887 C   0  0  0  0  0  0  0  0  0  0  0  0
    6.1750   -4.2820   -2.8143 N   0  0  0  0  0  0  0  0  0  0  0  0
    5.9911   -4.3237   -4.1863 C   0  0  0  0  0  0  0  0  0  0  0  0
    4.9155   -4.2103   -4.7728 O   0  0  0  0  0  0  0  0  0  0  0  0
    7.2382   -4.6307   -5.0179 C   0  0  3  0  0  0  0  0  0  0  0  0
    7.3861   -6.1334   -5.2495 C   0  0  0  0  0  0  0  0  0  0  0  0
    8.0088   -6.7785   -4.1038 N   0  0  0  0  0  0  0  0  0  0  0  0
    7.4116   -7.9490   -3.4367 C   0  0  0  0  0  0  0  0  0  0  0  0
    7.2514   -7.6362   -1.9289 C   0  0  0  0  0  0  0  0  0  0  0  0
    7.4695   -6.5093   -1.4777 O   0  0  0  0  0  0  0  0  0  0  0  0
    6.8366   -8.6670   -1.1036 N   0  0  0  0  0  0  0  0  0  0  0  0
    6.7301   -8.4447    0.3712 C   0  0  0  0  0  0  0  0  0  0  0  0
    8.0589   -8.1556    1.1025 C   0  0  0  0  0  0  0  0  0  0  0  0
    7.6411   -9.0141    2.2066 O   0  0  0  0  0  0  0  0  0  0  0  0
    6.7177   -9.6792    1.2934 C   0  0  0  0  0  0  0  0  0  0  0  0
    9.2799   -6.3515   -3.7331 C   0  0  0  0  0  0  0  0  0  0  0  0
   10.0785   -7.0595   -3.1336 O   0  0  0  0  0  0  0  0  0  0  0  0
    9.5465   -4.8927   -3.9733 C   0  0  0  0  0  0  0  0  0  0  0  0
   10.7618   -4.3432   -3.5524 C   0  0  0  0  0  0  0  0  0  0  0  0
   10.9615   -2.9602   -3.6055 C   0  0  0  0  0  0  0  0  0  0  0  0
    9.9454   -2.1254   -4.0677 C   0  0  0  0  0  0  0  0  0  0  0  0
   10.1728   -0.4207   -4.0804 Cl  0  0  0  0  0  0  0  0  0  0  0  0
    8.7403   -2.6613   -4.5168 C   0  0  0  0  0  0  0  0  0  0  0  0
    8.5355   -4.0506   -4.4875 C   0  0  0  0  0  0  0  0  0  0  0  0
    5.5488   -4.3676   -0.4992 C   0  0  0  0  0  0  0  0  0  0  0  0
    4.7487   -4.2684    0.5825 N   0  0  0  0  0  0  0  0  0  0  0  0
    3.5760   -3.6379    0.3887 C   0  0  0  0  0  0  0  0  0  0  0  0
    3.1948   -3.0336   -0.8107 C   0  0  0  0  0  0  0  0  0  0  0  0
    1.9762   -2.3372   -0.9000 C   0  0  0  0  0  0  0  0  0  0  0  0
   -1.9602   -1.4084   -3.0565 H   0  0  0  0  0  0  0  0  0  0  0  0
   -1.1529   -2.7469   -2.1899 H   0  0  0  0  0  0  0  0  0  0  0  0
   -0.6183   -2.2854   -3.8414 H   0  0  0  0  0  0  0  0  0  0  0  0
    2.3134   -1.0771   -4.0451 H   0  0  0  0  0  0  0  0  0  0  0  0
    4.4274   -2.2272   -3.8795 H   0  0  0  0  0  0  0  0  0  0  0  0
    6.9726   -4.8221   -2.4727 H   0  0  0  0  0  0  0  0  0  0  0  0
    7.0678   -4.1651   -6.0008 H   0  0  0  0  0  0  0  0  0  0  0  0
    8.0850   -6.2798   -6.0885 H   0  0  0  0  0  0  0  0  0  0  0  0
    6.4486   -6.6242   -5.5271 H   0  0  0  0  0  0  0  0  0  0  0  0
    8.0594   -8.8182   -3.5723 H   0  0  0  0  0  0  0  0  0  0  0  0
    6.4181   -8.1399   -3.8559 H   0  0  0  0  0  0  0  0  0  0  0  0
    6.5202   -9.5370   -1.5152 H   0  0  0  0  0  0  0  0  0  0  0  0
    5.9336   -7.7306    0.6146 H   0  0  0  0  0  0  0  0  0  0  0  0
    8.2168   -7.1199    1.4119 H   0  0  0  0  0  0  0  0  0  0  0  0
    8.9697   -8.5534    0.6412 H   0  0  0  0  0  0  0  0  0  0  0  0
    5.7637   -9.9052    1.7774 H   0  0  0  0  0  0  0  0  0  0  0  0
    7.1682  -10.5990    0.9073 H   0  0  0  0  0  0  0  0  0  0  0  0
   11.5452   -4.9859   -3.1547 H   0  0  0  0  0  0  0  0  0  0  0  0
   11.9034   -2.5389   -3.2623 H   0  0  0  0  0  0  0  0  0  0  0  0
    7.9575   -1.9970   -4.8800 H   0  0  0  0  0  0  0  0  0  0  0  0
    6.4904   -4.8609   -0.2779 H   0  0  0  0  0  0  0  0  0  0  0  0
    2.9422   -3.6034    1.2705 H   0  0  0  0  0  0  0  0  0  0  0  0
    1.3043   -2.2956   -0.0436 H   0  0  0  0  0  0  0  0  0  0  0  0
  1  2  1  0  0  0  0
  1 38  1  0  0  0  0
  1 39  1  0  0  0  0
  1 40  1  0  0  0  0
  2  3  2  0  0  0  0
  2  4  2  0  0  0  0
  2  5  1  0  0  0  0
  5  6  1  0  0  0  0
  5 37  2  0  0  0  0
  6  7  2  0  0  0  0
  6 41  1  0  0  0  0
  7  8  1  0  0  0  0
  7 42  1  0  0  0  0
  8  9  1  0  0  0  0
  8 36  2  0  0  0  0
  9 10  1  0  0  0  0
  9 33  2  0  0  0  0
 10 11  1  0  0  0  0
 10 43  1  0  0  0  0
 11 12  2  0  0  0  0
 11 13  1  0  0  0  0
 13 14  1  0  0  0  0
 13 32  1  0  0  0  0
 13 44  1  0  0  0  0
 14 15  1  0  0  0  0
 14 45  1  0  0  0  0
 14 46  1  0  0  0  0
 15 16  1  0  0  0  0
 15 24  1  0  0  0  0
 16 17  1  0  0  0  0
 16 47  1  0  0  0  0
 16 48  1  0  0  0  0
 17 18  2  0  0  0  0
 17 19  1  0  0  0  0
 19 20  1  0  0  0  0
 19 49  1  0  0  0  0
 20 21  1  0  0  0  0
 20 23  1  0  0  0  0
 20 50  1  0  0  0  0
 21 22  1  0  0  0  0
 21 51  1  0  0  0  0
 21 52  1  0  0  0  0
 22 23  1  0  0  0  0
 23 53  1  0  0  0  0
 23 54  1  0  0  0  0
 24 25  2  0  0  0  0
 24 26  1  0  0  0  0
 26 27  1  0  0  0  0
 26 32  2  0  0  0  0
 27 28  2  0  0  0  0
 27 55  1  0  0  0  0
 28 29  1  0  0  0  0
 28 56  1  0  0  0  0
 29 30  1  0  0  0  0
 29 31  2  0  0  0  0
 31 32  1  0  0  0  0
 31 57  1  0  0  0  0
 33 34  1  0  0  0  0
 33 58  1  0  0  0  0
 34 35  2  0  0  0  0
 35 36  1  0  0  0  0
 35 59  1  0  0  0  0
 36 37  1  0  0  0  0
 37 60  1  0  0  0  0
M  END
$$$$
