stable:False satoms:22 tatoms:24 sratio:0.9166666666666666
  -OEChem-07092417283D

 24 24  0     1  0  0  0  0  0999 V2000
   10.2707   -3.4389   23.6464 C   0  3  0  0  0  0  0  0  0  0  0  0
    9.2443    2.5380   23.1545 S   0  0  0  0  0  0  0  0  0  0  0  0
    9.1818   -4.8895   21.8189 H   0  0  0  0  0  0  0  0  0  0  0  0
    7.5959   -4.1139   21.9260 H   0  0  0  0  0  0  0  0  0  0  0  0
    7.7700   -1.1394   22.4112 C   0  0  0  0  0  0  0  0  0  0  0  0
    6.6905   -1.1029   22.6180 H   0  0  0  0  0  0  0  0  0  0  0  0
   10.2364   -3.4039   24.7221 H   0  0  0  0  0  0  0  0  0  0  0  0
    7.9109   -1.5668   21.4183 H   0  0  0  0  0  0  0  0  0  0  0  0
    7.7568   -2.3165   24.2522 H   0  0  0  0  0  0  0  0  0  0  0  0
    8.3459    0.6222   24.6463 O   0  0  0  0  0  0  0  0  0  0  0  0
    8.2389   -5.0311   23.3138 H   0  0  0  0  0  0  0  0  0  0  0  0
    9.2270   -1.3646   23.9707 H   0  0  0  0  0  0  0  0  0  0  0  0
    8.4696   -1.9852   23.4843 C   0  0  0  0  0  0  0  0  0  0  0  0
    8.5878    0.8901   21.1206 C   0  0  0  0  0  0  0  0  0  0  0  0
    8.4948   -4.3608   22.4811 C   0  0  0  0  0  0  0  0  0  0  0  0
    8.3177    3.0502   21.0157 H   0  0  0  0  0  0  0  0  0  0  0  0
    8.2958    0.2162   22.3809 N   0  0  0  0  0  0  0  0  0  0  0  0
   10.0043    2.5291   20.8897 H   0  0  0  0  0  0  0  0  0  0  0  0
   11.1515   -3.7269   23.0940 H   0  0  0  0  0  0  0  0  0  0  0  0
    7.6700    0.9226   20.5133 H   0  0  0  0  0  0  0  0  0  0  0  0
    9.0500    2.3164   21.3655 C   0  0  0  0  0  0  0  0  0  0  0  0
    9.1630   -3.1708   22.9594 N   0  3  2  0  0  0  0  0  0  0  0  0
    8.5577    0.9165   23.5019 C   0  0  0  0  0  0  0  0  0  0  0  0
    9.3529    0.3197   20.5919 H   0  0  0  0  0  0  0  0  0  0  0  0
 14 20  1  0  0  0  0
 14 24  1  0  0  0  0
 18 21  1  0  0  0  0
 16 21  1  0  0  0  0
 14 21  1  0  0  0  0
 14 17  1  0  0  0  0
  2 21  1  0  0  0  0
  5  8  1  0  0  0  0
  3 15  1  0  0  0  0
  4 15  1  0  0  0  0
  5 17  1  0  0  0  0
 17 23  1  0  0  0  0
  5  6  1  0  0  0  0
  5 13  1  0  0  0  0
 15 22  1  0  0  0  0
 11 15  1  0  0  0  0
 13 22  1  0  0  0  0
  1 22  1  0  0  0  0
  1 19  1  0  0  0  0
  2 23  1  0  0  0  0
 12 13  1  0  0  0  0
  9 13  1  0  0  0  0
 10 23  2  0  0  0  0
  1  7  1  0  0  0  0
M  CHG  2   1   1  22   1
M  END
> <Shapegauss>
-83.043709

$$$$
