stable:False satoms:22 tatoms:24 sratio:0.9166666666666666
  -OEChem-08052417473D

 24 24  0     1  0  0  0  0  0999 V2000
    5.0280    2.7004   21.2558 C   0  0  0  0  0  2  0  0  0  0  0  0
    9.2190   -1.4620   22.7146 S   0  0  0  0  0  0  0  0  0  0  0  0
    2.9830    1.7931   19.9812 H   0  0  0  0  0  0  0  0  0  0  0  0
    3.9263    0.8452   18.8238 H   0  0  0  0  0  0  0  0  0  0  0  0
    6.3614   -0.4401   20.0615 C   0  0  0  0  0  0  0  0  0  0  0  0
    6.7375   -0.7055   19.0628 H   0  0  0  0  0  0  0  0  0  0  0  0
    5.0280    2.7004   21.2558 H   0  0  0  0  0  0  0  0  0  0  0  0
    5.3665   -0.8710   20.1748 H   0  0  0  0  0  0  0  0  0  0  0  0
    6.7353    1.5787   19.3133 H   0  0  0  0  0  0  0  0  0  0  0  0
    9.0023    0.3994   20.9282 O   0  0  0  0  0  0  0  0  0  0  0  0
    4.0580    2.6237   18.8418 H   0  0  0  0  0  0  0  0  0  0  0  0
    6.9462    1.3663   21.0618 H   0  0  0  0  0  0  0  0  0  0  0  0
    6.3247    1.0877   20.2065 C   0  0  0  0  0  0  0  0  0  0  0  0
    6.8095   -2.2488   21.7880 C   0  0  0  0  0  0  0  0  0  0  0  0
    3.9392    1.7233   19.4609 C   0  0  0  0  0  0  0  0  0  0  0  0
    8.3526   -3.6628   22.3958 H   0  0  0  0  0  0  0  0  0  0  0  0
    7.2164   -1.0463   21.0697 N   0  0  0  0  0  0  0  0  0  0  0  0
    7.5607   -2.8376   23.7464 H   0  0  0  0  0  0  0  0  0  0  0  0
    6.6109   -3.0492   21.0585 H   0  0  0  0  0  0  0  0  0  0  0  0
    7.9107   -2.7172   22.7240 C   0  0  0  0  0  0  0  0  0  0  0  0
    4.9840    1.6369   20.4571 N   0  3  2  0  0  0  0  0  0  0  0  0
    8.4140   -0.5301   21.4089 C   0  0  0  0  0  0  0  0  0  0  0  0
    5.8963   -2.0286   22.3429 H   0  0  0  0  0  0  0  0  0  0  0  0
    4.6077    0.9384   21.0657 H   0  0  0  0  0  0  0  0  0  0  0  0
 14 19  1  0  0  0  0
 14 23  1  0  0  0  0
 18 20  1  0  0  0  0
 16 20  1  0  0  0  0
 14 20  1  0  0  0  0
 14 17  1  0  0  0  0
  2 20  1  0  0  0  0
  5  8  1  0  0  0  0
  3 15  1  0  0  0  0
  4 15  1  0  0  0  0
  5 17  1  0  0  0  0
 17 22  1  0  0  0  0
  5  6  1  0  0  0  0
  5 13  1  0  0  0  0
 15 21  1  0  0  0  0
 11 15  1  0  0  0  0
 13 21  1  0  0  0  0
  1 21  1  0  0  0  0
  2 22  1  0  0  0  0
 12 13  1  0  0  0  0
  9 13  1  0  0  0  0
 10 22  2  0  0  0  0
  1  7  1  0  0  0  0
 21 24  1  0  0  0  0
M  CHG  1  21   1
M  END
> <Chemgauss4>
-5.267429

$$$$
