stable:False satoms:22 tatoms:24 sratio:0.9166666666666666
  -OEChem-08052417473D

 24 24  0     1  0  0  0  0  0999 V2000
   -5.0597    2.8110  -21.2558 C   0  0  0  0  0  2  0  0  0  0  0  0
   -9.2508   -1.3514  -22.7146 S   0  0  0  0  0  0  0  0  0  0  0  0
   -3.0147    1.9038  -19.9812 H   0  0  0  0  0  0  0  0  0  0  0  0
   -3.9581    0.9559  -18.8238 H   0  0  0  0  0  0  0  0  0  0  0  0
   -6.3931   -0.3295  -20.0615 C   0  0  0  0  0  0  0  0  0  0  0  0
   -6.7692   -0.5949  -19.0628 H   0  0  0  0  0  0  0  0  0  0  0  0
   -5.0597    2.8110  -21.2558 H   0  0  0  0  0  0  0  0  0  0  0  0
   -5.3982   -0.7604  -20.1748 H   0  0  0  0  0  0  0  0  0  0  0  0
   -6.7670    1.6893  -19.3133 H   0  0  0  0  0  0  0  0  0  0  0  0
   -9.0341    0.5100  -20.9282 O   0  0  0  0  0  0  0  0  0  0  0  0
   -4.0898    2.7343  -18.8418 H   0  0  0  0  0  0  0  0  0  0  0  0
   -6.9780    1.4769  -21.0618 H   0  0  0  0  0  0  0  0  0  0  0  0
   -6.3565    1.1983  -20.2065 C   0  0  0  0  0  0  0  0  0  0  0  0
   -6.8412   -2.1382  -21.7880 C   0  0  0  0  0  0  0  0  0  0  0  0
   -3.9710    1.8339  -19.4609 C   0  0  0  0  0  0  0  0  0  0  0  0
   -8.3844   -3.5521  -22.3958 H   0  0  0  0  0  0  0  0  0  0  0  0
   -7.2482   -0.9356  -21.0697 N   0  0  0  0  0  0  0  0  0  0  0  0
   -7.5924   -2.7270  -23.7464 H   0  0  0  0  0  0  0  0  0  0  0  0
   -6.6426   -2.9386  -21.0585 H   0  0  0  0  0  0  0  0  0  0  0  0
   -7.9424   -2.6066  -22.7240 C   0  0  0  0  0  0  0  0  0  0  0  0
   -5.0158    1.7476  -20.4571 N   0  3  2  0  0  0  0  0  0  0  0  0
   -8.4457   -0.4195  -21.4089 C   0  0  0  0  0  0  0  0  0  0  0  0
   -5.9280   -1.9180  -22.3429 H   0  0  0  0  0  0  0  0  0  0  0  0
   -4.6394    1.0490  -21.0657 H   0  0  0  0  0  0  0  0  0  0  0  0
 14 19  1  0  0  0  0
 14 23  1  0  0  0  0
 18 20  1  0  0  0  0
 16 20  1  0  0  0  0
 14 20  1  0  0  0  0
 14 17  1  0  0  0  0
  2 20  1  0  0  0  0
  5  8  1  0  0  0  0
  3 15  1  0  0  0  0
  4 15  1  0  0  0  0
  5 17  1  0  0  0  0
 17 22  1  0  0  0  0
  5  6  1  0  0  0  0
  5 13  1  0  0  0  0
 15 21  1  0  0  0  0
 11 15  1  0  0  0  0
 13 21  1  0  0  0  0
  1 21  1  0  0  0  0
  2 22  1  0  0  0  0
 12 13  1  0  0  0  0
  9 13  1  0  0  0  0
 10 22  2  0  0  0  0
  1  7  1  0  0  0  0
 21 24  1  0  0  0  0
M  CHG  1  21   1
M  END
> <Chemgauss4>
-5.243357

$$$$
