stable:False satoms:23 tatoms:24 sratio:0.9583333333333334
  -OEChem-08052421033D

 26 26  0     1  0  0  0  0  0999 V2000
   11.0343   -2.0177   21.0348 H   0  0  0  0  0  0  0  0  0  0  0  0
   14.0228    0.0291   24.2031 H   0  0  0  0  0  0  0  0  0  0  0  0
   11.3454   -1.5534   21.8641 N   0  0  0  0  0  0  0  0  0  0  0  0
   13.2861   -0.7797   24.1483 C   0  0  0  0  0  0  0  0  0  0  0  0
   10.2074   -1.3448   22.7628 C   0  0  1  0  0  0  0  0  0  0  0  0
   13.5022   -1.4819   24.9468 H   0  0  0  0  0  0  0  0  0  0  0  0
   13.4268   -1.2579   23.1750 H   0  0  0  0  0  0  0  0  0  0  0  0
    9.6163   -2.6245   24.4038 H   0  0  0  0  0  0  0  0  0  0  0  0
    8.4272   -0.1707   24.5329 O   0  0  0  0  0  0  0  0  0  0  0  0
    9.9791    0.8619   25.2304 H   0  0  0  0  0  0  0  0  0  0  0  0
    9.8510   -0.7570   25.8647 H   0  0  0  0  0  0  0  0  0  0  0  0
   11.9935    0.6237   23.9188 H   0  0  0  0  0  0  0  0  0  0  0  0
   11.9121   -0.3084   24.2718 N   0  3  0  0  0  0  0  0  0  0  0  0
    9.3351   -2.5090   23.3507 C   0  0  0  0  0  0  0  0  0  0  0  0
   10.6259   -0.6381   23.8701 N   0  0  3  0  0  0  0  0  0  0  0  0
    9.6921   -0.1748   24.9396 C   0  0  0  0  0  0  0  0  0  0  0  0
    6.6031   -0.9377   24.2013 H   0  0  0  0  0  0  0  0  0  0  0  0
    7.5382   -0.8501   23.6419 C   0  0  0  0  0  0  0  0  0  0  0  0
    7.3295   -2.9253   23.6046 H   0  0  0  0  0  0  0  0  0  0  0  0
    9.4153   -0.8228   22.1284 H   0  0  0  0  0  0  0  0  0  0  0  0
   11.7453   -0.6697   21.6212 H   0  0  0  0  0  0  0  0  0  0  0  0
    9.5961   -3.4197   22.7879 H   0  0  0  0  0  0  0  0  0  0  0  0
    7.3646   -0.2004   22.7650 H   0  0  0  0  0  0  0  0  0  0  0  0
    7.9556   -2.1579   23.1258 C   0  0  1  0  0  0  0  0  0  0  0  0
    7.7781   -2.1648   22.0402 H   0  0  0  0  0  0  0  0  0  0  0  0
   11.8045   -0.2803   25.2656 H   0  0  0  0  0  0  0  0  0  0  0  0
 18 23  1  0  0  0  0
 17 18  1  0  0  0  0
  9 18  1  0  0  0  0
 18 24  1  0  0  0  0
 19 24  1  0  0  0  0
  9 16  1  0  0  0  0
 14 24  1  0  0  0  0
  5 20  1  0  0  0  0
 10 16  1  0  0  0  0
  3 21  1  0  0  0  0
 15 16  1  0  0  0  0
 11 16  1  0  0  0  0
  5 14  1  0  0  0  0
  5 15  1  0  0  0  0
  3  5  1  0  0  0  0
 14 22  1  0  0  0  0
  8 14  1  0  0  0  0
 13 15  1  0  0  0  0
  1  3  1  0  0  0  0
 12 13  1  0  0  0  0
  4 13  1  0  0  0  0
  4  7  1  0  0  0  0
  2  4  1  0  0  0  0
  4  6  1  0  0  0  0
 24 25  1  0  0  0  0
 13 26  1  0  0  0  0
M  CHG  1  13   1
M  END
> <Chemgauss4>
-4.888686

$$$$
