stable:False satoms:23 tatoms:24 sratio:0.9583333333333334
  -OEChem-08052421033D

 26 26  0     1  0  0  0  0  0999 V2000
  -13.6973    0.7034  -25.7500 H   0  0  0  0  0  0  0  0  0  0  0  0
  -13.7870   -3.1669  -22.8916 H   0  0  0  0  0  0  0  0  0  0  0  0
  -13.3909    0.0246  -25.0827 N   0  0  0  0  0  0  0  0  0  0  0  0
  -13.6426   -2.0829  -22.8293 C   0  0  0  0  0  0  0  0  0  0  0  0
  -12.0614    0.3915  -24.5885 C   0  0  1  0  0  0  0  0  0  0  0  0
  -13.8610   -1.7756  -21.8119 H   0  0  0  0  0  0  0  0  0  0  0  0
  -14.3615   -1.6370  -23.5223 H   0  0  0  0  0  0  0  0  0  0  0  0
  -11.6241    1.5032  -22.7849 H   0  0  0  0  0  0  0  0  0  0  0  0
   -9.4170    0.2368  -23.7735 O   0  0  0  0  0  0  0  0  0  0  0  0
   -9.8382   -1.6035  -23.1436 H   0  0  0  0  0  0  0  0  0  0  0  0
  -10.3128   -0.3410  -22.0390 H   0  0  0  0  0  0  0  0  0  0  0  0
  -12.0197   -2.3998  -23.8084 H   0  0  0  0  0  0  0  0  0  0  0  0
  -12.2916   -1.6665  -23.1853 N   0  3  0  0  0  0  0  0  0  0  0  0
  -11.7469    1.7387  -23.8483 C   0  0  0  0  0  0  0  0  0  0  0  0
  -11.6110   -0.5857  -23.7266 N   0  0  3  0  0  0  0  0  0  0  0  0
  -10.2472   -0.5674  -23.1181 C   0  0  0  0  0  0  0  0  0  0  0  0
   -8.5122    1.9707  -24.2212 H   0  0  0  0  0  0  0  0  0  0  0  0
   -9.4064    1.4362  -24.5527 C   0  0  0  0  0  0  0  0  0  0  0  0
  -10.3026    3.2114  -23.9226 H   0  0  0  0  0  0  0  0  0  0  0  0
  -11.4242    0.5412  -25.5233 H   0  0  0  0  0  0  0  0  0  0  0  0
  -13.3489   -0.8749  -25.5176 H   0  0  0  0  0  0  0  0  0  0  0  0
  -12.6213    2.3939  -23.9917 H   0  0  0  0  0  0  0  0  0  0  0  0
   -9.2772    1.1576  -25.6142 H   0  0  0  0  0  0  0  0  0  0  0  0
  -10.5842    2.3072  -24.4823 C   0  0  1  0  0  0  0  0  0  0  0  0
  -10.8615    2.5838  -25.5103 H   0  0  0  0  0  0  0  0  0  0  0  0
  -11.8171   -1.7779  -22.3121 H   0  0  0  0  0  0  0  0  0  0  0  0
 18 23  1  0  0  0  0
 17 18  1  0  0  0  0
  9 18  1  0  0  0  0
 18 24  1  0  0  0  0
 19 24  1  0  0  0  0
  9 16  1  0  0  0  0
 14 24  1  0  0  0  0
  5 20  1  0  0  0  0
 10 16  1  0  0  0  0
  3 21  1  0  0  0  0
 15 16  1  0  0  0  0
 11 16  1  0  0  0  0
  5 14  1  0  0  0  0
  5 15  1  0  0  0  0
  3  5  1  0  0  0  0
 14 22  1  0  0  0  0
  8 14  1  0  0  0  0
 13 15  1  0  0  0  0
  1  3  1  0  0  0  0
 12 13  1  0  0  0  0
  4 13  1  0  0  0  0
  4  7  1  0  0  0  0
  2  4  1  0  0  0  0
  4  6  1  0  0  0  0
 24 25  1  0  0  0  0
 13 26  1  0  0  0  0
M  CHG  1  13   1
M  END
> <Chemgauss4>
-4.862305

$$$$
