MODEL 1
REMARK VINA RESULT:    -4.987      0.000      0.000
REMARK INTER + INTRA:          -6.148
REMARK INTER:                  -5.862
REMARK INTRA:                  -0.287
REMARK UNBOUND:                -0.287
REMARK  3 active torsions:
REMARK  status: ('A' for Active; 'I' for Inactive)
REMARK    1  A    between atoms: C_4  and  C_13 
REMARK    2  A    between atoms: C_5  and  C_13 
REMARK    3  A    between atoms: N_10  and  C_15 
ROOT
HETATM    1  C   UNL     1      11.339   0.270  24.960  1.00  0.00     0.133 C 
HETATM    2  C   UNL     1       8.484  -0.208  23.758  1.00  0.00    -0.013 C 
HETATM    3  S   UNL     1      10.544  -1.471  22.872  1.00  0.00    -0.076 SA
HETATM    4  H   UNL     1      10.308   1.879  25.652  1.00  0.00     0.166 HD
HETATM    5 CL   UNL     1       7.812   1.935  25.329  1.00  0.00    -0.064 Cl
HETATM    6  C   UNL     1       9.043  -1.421  23.565  1.00  0.00     0.062 C 
HETATM    7  C   UNL     1       8.934   0.794  24.650  1.00  0.00     0.110 C 
HETATM    8  N   UNL     1      10.215   1.045  25.080  1.00  0.00    -0.353 N 
HETATM    9  C   UNL     1      11.582  -0.633  23.986  1.00  0.00     0.158 C 
ENDROOT
BRANCH   2  10
HETATM   10  C   UNL     1       7.387  -0.066  22.712  1.00  0.00     0.042 C 
BRANCH  10  11
HETATM   11  C   UNL     1       7.537   0.891  21.480  1.00  0.00     0.000 C 
HETATM   12  C   UNL     1       8.016   0.090  20.276  1.00  0.00     0.005 C 
ENDBRANCH  10  11
ENDBRANCH   2  10
BRANCH   9  13
HETATM   13  N   UNL     1      12.904  -1.059  23.684  1.00  0.00    -0.107 N 
HETATM   14  O   UNL     1      13.050  -1.963  22.861  1.00  0.00    -0.531 OA
HETATM   15  O   UNL     1      13.805  -0.535  24.314  1.00  0.00    -0.531 OA
ENDBRANCH   9  13
TORSDOF 3
ENDMDL
MODEL 2
REMARK VINA RESULT:    -4.861      4.367      5.585
REMARK INTER + INTRA:          -6.000
REMARK INTER:                  -5.711
REMARK INTRA:                  -0.289
REMARK UNBOUND:                -0.287
REMARK  3 active torsions:
REMARK  status: ('A' for Active; 'I' for Inactive)
REMARK    1  A    between atoms: C_4  and  C_13 
REMARK    2  A    between atoms: C_5  and  C_13 
REMARK    3  A    between atoms: N_10  and  C_15 
ROOT
HETATM    1  C   UNL     1       6.478  -1.099  21.137  1.00  0.00     0.133 C 
HETATM    2  C   UNL     1       7.276  -3.292  23.230  1.00  0.00    -0.013 C 
HETATM    3  S   UNL     1       9.028  -1.709  22.207  1.00  0.00    -0.076 SA
HETATM    4  H   UNL     1       4.848  -2.314  21.128  1.00  0.00     0.166 HD
HETATM    5 CL   UNL     1       4.689  -4.123  22.873  1.00  0.00    -0.064 Cl
HETATM    6  C   UNL     1       8.204  -2.348  23.492  1.00  0.00     0.062 C 
HETATM    7  C   UNL     1       6.058  -3.106  22.535  1.00  0.00     0.110 C 
HETATM    8  N   UNL     1       5.767  -2.200  21.544  1.00  0.00    -0.353 N 
HETATM    9  C   UNL     1       7.814  -0.936  21.233  1.00  0.00     0.158 C 
ENDROOT
BRANCH   2  10
HETATM   10  C   UNL     1       7.873  -4.619  23.676  1.00  0.00     0.042 C 
BRANCH  10  11
HETATM   11  C   UNL     1       8.135  -4.944  25.186  1.00  0.00     0.000 C 
HETATM   12  C   UNL     1       6.820  -5.322  25.855  1.00  0.00     0.005 C 
ENDBRANCH  10  11
ENDBRANCH   2  10
BRANCH   9  13
HETATM   13  N   UNL     1       8.506   0.001  20.418  1.00  0.00    -0.107 N 
HETATM   14  O   UNL     1       8.216   0.058  19.223  1.00  0.00    -0.531 OA
HETATM   15  O   UNL     1       9.390   0.644  20.954  1.00  0.00    -0.531 OA
ENDBRANCH   9  13
TORSDOF 3
ENDMDL
MODEL 3
REMARK VINA RESULT:    -4.833     12.712     14.323
REMARK INTER + INTRA:          -5.967
REMARK INTER:                  -5.654
REMARK INTRA:                  -0.313
REMARK UNBOUND:                -0.287
REMARK  3 active torsions:
REMARK  status: ('A' for Active; 'I' for Inactive)
REMARK    1  A    between atoms: C_4  and  C_13 
REMARK    2  A    between atoms: C_5  and  C_13 
REMARK    3  A    between atoms: N_10  and  C_15 
ROOT
HETATM    1  C   UNL     1      24.623  -4.865  23.748  1.00  0.00     0.133 C 
HETATM    2  C   UNL     1      23.537  -2.367  25.299  1.00  0.00    -0.013 C 
HETATM    3  S   UNL     1      23.395  -4.735  26.297  1.00  0.00    -0.076 SA
HETATM    4  H   UNL     1      24.515  -3.463  22.280  1.00  0.00     0.166 HD
HETATM    5 CL   UNL     1      24.030  -1.079  22.931  1.00  0.00    -0.064 Cl
HETATM    6  C   UNL     1      23.902  -3.160  26.327  1.00  0.00     0.062 C 
HETATM    7  C   UNL     1      23.962  -2.482  23.954  1.00  0.00     0.110 C 
HETATM    8  N   UNL     1      24.336  -3.613  23.268  1.00  0.00    -0.353 N 
HETATM    9  C   UNL     1      24.130  -5.416  24.877  1.00  0.00     0.158 C 
ENDROOT
BRANCH   2  10
HETATM   10  C   UNL     1      22.454  -1.439  25.832  1.00  0.00     0.042 C 
BRANCH  10  11
HETATM   11  C   UNL     1      20.940  -1.653  25.492  1.00  0.00     0.000 C 
HETATM   12  C   UNL     1      20.602  -0.906  24.209  1.00  0.00     0.005 C 
ENDBRANCH  10  11
ENDBRANCH   2  10
BRANCH   9  13
HETATM   13  N   UNL     1      24.121  -6.825  25.071  1.00  0.00    -0.107 N 
HETATM   14  O   UNL     1      24.105  -7.253  26.225  1.00  0.00    -0.531 OA
HETATM   15  O   UNL     1      24.194  -7.515  24.070  1.00  0.00    -0.531 OA
ENDBRANCH   9  13
TORSDOF 3
ENDMDL
MODEL 4
REMARK VINA RESULT:    -4.787      2.505      2.951
REMARK INTER + INTRA:          -5.914
REMARK INTER:                  -5.699
REMARK INTRA:                  -0.214
REMARK UNBOUND:                -0.287
REMARK  3 active torsions:
REMARK  status: ('A' for Active; 'I' for Inactive)
REMARK    1  A    between atoms: C_4  and  C_13 
REMARK    2  A    between atoms: C_5  and  C_13 
REMARK    3  A    between atoms: N_10  and  C_15 
ROOT
HETATM    1  C   UNL     1      10.903  -1.457  23.548  1.00  0.00     0.133 C 
HETATM    2  C   UNL     1       8.471  -0.771  21.694  1.00  0.00    -0.013 C 
HETATM    3  S   UNL     1      10.173   1.026  22.399  1.00  0.00    -0.076 SA
HETATM    4  H   UNL     1       9.695  -3.071  23.812  1.00  0.00     0.166 HD
HETATM    5 CL   UNL     1       7.684  -3.321  22.318  1.00  0.00    -0.064 Cl
HETATM    6  C   UNL     1       9.378   0.128  21.259  1.00  0.00     0.062 C 
HETATM    7  C   UNL     1       8.738  -1.945  22.439  1.00  0.00     0.110 C 
HETATM    8  N   UNL     1       9.760  -2.181  23.327  1.00  0.00    -0.353 N 
HETATM    9  C   UNL     1      11.057  -0.132  23.347  1.00  0.00     0.158 C 
ENDROOT
BRANCH   2  10
HETATM   10  C   UNL     1       7.100  -0.190  21.378  1.00  0.00     0.042 C 
BRANCH  10  11
HETATM   11  C   UNL     1       6.675   0.182  19.917  1.00  0.00     0.000 C 
HETATM   12  C   UNL     1       5.626  -0.809  19.430  1.00  0.00     0.005 C 
ENDBRANCH  10  11
ENDBRANCH   2  10
BRANCH   9  13
HETATM   13  N   UNL     1      12.089   0.601  23.993  1.00  0.00    -0.107 N 
HETATM   14  O   UNL     1      12.000   1.828  24.025  1.00  0.00    -0.531 OA
HETATM   15  O   UNL     1      13.031  -0.043  24.421  1.00  0.00    -0.531 OA
ENDBRANCH   9  13
TORSDOF 3
ENDMDL
MODEL 5
REMARK VINA RESULT:    -4.734     25.874     27.181
REMARK INTER + INTRA:          -5.851
REMARK INTER:                  -5.593
REMARK INTRA:                  -0.258
REMARK UNBOUND:                -0.287
REMARK  3 active torsions:
REMARK  status: ('A' for Active; 'I' for Inactive)
REMARK    1  A    between atoms: C_4  and  C_13 
REMARK    2  A    between atoms: C_5  and  C_13 
REMARK    3  A    between atoms: N_10  and  C_15 
ROOT
HETATM    1  C   UNL     1       9.098  16.651   4.536  1.00  0.00     0.133 C 
HETATM    2  C   UNL     1       7.600  17.651   1.971  1.00  0.00    -0.013 C 
HETATM    3  S   UNL     1       9.024  15.508   1.946  1.00  0.00    -0.076 SA
HETATM    4  H   UNL     1       8.651  18.573   5.024  1.00  0.00     0.166 HD
HETATM    5 CL   UNL     1       7.117  19.871   3.506  1.00  0.00    -0.064 Cl
HETATM    6  C   UNL     1       7.593  16.319   1.760  1.00  0.00     0.062 C 
HETATM    7  C   UNL     1       7.817  18.308   3.206  1.00  0.00     0.110 C 
HETATM    8  N   UNL     1       8.567  17.889   4.278  1.00  0.00    -0.353 N 
HETATM    9  C   UNL     1       9.453  15.731   3.614  1.00  0.00     0.158 C 
ENDROOT
BRANCH   2  10
HETATM   10  C   UNL     1       7.500  18.307   0.601  1.00  0.00     0.042 C 
BRANCH  10  11
HETATM   11  C   UNL     1       8.769  18.779  -0.185  1.00  0.00     0.000 C 
HETATM   12  C   UNL     1       8.738  20.296  -0.327  1.00  0.00     0.005 C 
ENDBRANCH  10  11
ENDBRANCH   2  10
BRANCH   9  13
HETATM   13  N   UNL     1      10.374  14.692   3.922  1.00  0.00    -0.107 N 
HETATM   14  O   UNL     1      11.577  14.927   3.806  1.00  0.00    -0.531 OA
HETATM   15  O   UNL     1       9.899  13.611   4.223  1.00  0.00    -0.531 OA
ENDBRANCH   9  13
TORSDOF 3
ENDMDL
MODEL 6
REMARK VINA RESULT:    -4.717     23.723     25.195
REMARK INTER + INTRA:          -5.831
REMARK INTER:                  -5.646
REMARK INTRA:                  -0.185
REMARK UNBOUND:                -0.287
REMARK  3 active torsions:
REMARK  status: ('A' for Active; 'I' for Inactive)
REMARK    1  A    between atoms: C_4  and  C_13 
REMARK    2  A    between atoms: C_5  and  C_13 
REMARK    3  A    between atoms: N_10  and  C_15 
ROOT
HETATM    1  C   UNL     1       7.753  11.247   3.513  1.00  0.00     0.133 C 
HETATM    2  C   UNL     1       7.431  14.268   2.741  1.00  0.00    -0.013 C 
HETATM    3  S   UNL     1       5.675  12.512   2.064  1.00  0.00    -0.076 SA
HETATM    4  H   UNL     1       9.628  11.970   3.821  1.00  0.00     0.166 HD
HETATM    5 CL   UNL     1       9.988  14.460   3.710  1.00  0.00    -0.064 Cl
HETATM    6  C   UNL     1       6.138  13.897   2.843  1.00  0.00     0.062 C 
HETATM    7  C   UNL     1       8.548  13.586   3.279  1.00  0.00     0.110 C 
HETATM    8  N   UNL     1       8.699  12.240   3.512  1.00  0.00    -0.353 N 
HETATM    9  C   UNL     1       6.601  11.246   2.810  1.00  0.00     0.158 C 
ENDROOT
BRANCH   2  10
HETATM   10  C   UNL     1       7.466  15.460   1.794  1.00  0.00     0.042 C 
BRANCH  10  11
HETATM   11  C   UNL     1       7.470  16.935   2.321  1.00  0.00     0.000 C 
HETATM   12  C   UNL     1       7.806  17.878   1.174  1.00  0.00     0.005 C 
ENDBRANCH  10  11
ENDBRANCH   2  10
BRANCH   9  13
HETATM   13  N   UNL     1       5.910  10.037   2.525  1.00  0.00    -0.107 N 
HETATM   14  O   UNL     1       5.748   9.724   1.345  1.00  0.00    -0.531 OA
HETATM   15  O   UNL     1       5.468   9.421   3.478  1.00  0.00    -0.531 OA
ENDBRANCH   9  13
TORSDOF 3
ENDMDL
MODEL 7
REMARK VINA RESULT:    -4.690      2.092      3.205
REMARK INTER + INTRA:          -5.799
REMARK INTER:                  -5.546
REMARK INTRA:                  -0.253
REMARK UNBOUND:                -0.287
REMARK  3 active torsions:
REMARK  status: ('A' for Active; 'I' for Inactive)
REMARK    1  A    between atoms: C_4  and  C_13 
REMARK    2  A    between atoms: C_5  and  C_13 
REMARK    3  A    between atoms: N_10  and  C_15 
ROOT
HETATM    1  C   UNL     1      10.994  -1.308  22.389  1.00  0.00     0.133 C 
HETATM    2  C   UNL     1       8.796   0.221  24.019  1.00  0.00    -0.013 C 
HETATM    3  S   UNL     1      11.247   0.153  24.802  1.00  0.00    -0.076 SA
HETATM    4  H   UNL     1       9.277  -2.064  21.606  1.00  0.00     0.166 HD
HETATM    5 CL   UNL     1       7.091  -0.991  22.247  1.00  0.00    -0.064 Cl
HETATM    6  C   UNL     1       9.886   0.959  24.315  1.00  0.00     0.062 C 
HETATM    7  C   UNL     1       8.657  -0.678  22.934  1.00  0.00     0.110 C 
HETATM    8  N   UNL     1       9.629  -1.416  22.304  1.00  0.00    -0.353 N 
HETATM    9  C   UNL     1      11.690  -0.839  23.446  1.00  0.00     0.158 C 
ENDROOT
BRANCH   2  10
HETATM   10  C   UNL     1       7.817   0.414  25.168  1.00  0.00     0.042 C 
BRANCH  10  11
HETATM   11  C   UNL     1       7.966  -0.360  26.521  1.00  0.00     0.000 C 
HETATM   12  C   UNL     1       8.187  -1.839  26.233  1.00  0.00     0.005 C 
ENDBRANCH  10  11
ENDBRANCH   2  10
BRANCH   9  13
HETATM   13  N   UNL     1      13.063  -1.160  23.630  1.00  0.00    -0.107 N 
HETATM   14  O   UNL     1      13.721  -0.473  24.410  1.00  0.00    -0.531 OA
HETATM   15  O   UNL     1      13.509  -2.065  22.948  1.00  0.00    -0.531 OA
ENDBRANCH   9  13
TORSDOF 3
ENDMDL
MODEL 8
REMARK VINA RESULT:    -4.682      4.118      5.040
REMARK INTER + INTRA:          -5.790
REMARK INTER:                  -5.623
REMARK INTRA:                  -0.168
REMARK UNBOUND:                -0.287
REMARK  3 active torsions:
REMARK  status: ('A' for Active; 'I' for Inactive)
REMARK    1  A    between atoms: C_4  and  C_13 
REMARK    2  A    between atoms: C_5  and  C_13 
REMARK    3  A    between atoms: N_10  and  C_15 
ROOT
HETATM    1  C   UNL     1       9.572  -0.795  21.920  1.00  0.00     0.133 C 
HETATM    2  C   UNL     1      10.519   1.760  23.469  1.00  0.00    -0.013 C 
HETATM    3  S   UNL     1       8.505   1.828  21.870  1.00  0.00    -0.076 SA
HETATM    4  H   UNL     1      11.435  -1.332  22.532  1.00  0.00     0.166 HD
HETATM    5 CL   UNL     1      12.644   0.169  24.153  1.00  0.00    -0.064 Cl
HETATM    6  C   UNL     1       9.198   2.009  23.361  1.00  0.00     0.062 C 
HETATM    7  C   UNL     1      11.155   0.504  23.321  1.00  0.00     0.110 C 
HETATM    8  N   UNL     1      10.768  -0.566  22.550  1.00  0.00    -0.353 N 
HETATM    9  C   UNL     1       8.712   0.148  21.478  1.00  0.00     0.158 C 
ENDROOT
BRANCH   2  10
HETATM   10  C   UNL     1      11.204   3.112  23.609  1.00  0.00     0.042 C 
BRANCH  10  11
HETATM   11  C   UNL     1      10.402   4.416  23.938  1.00  0.00     0.000 C 
HETATM   12  C   UNL     1      11.289   5.629  23.690  1.00  0.00     0.005 C 
ENDBRANCH  10  11
ENDBRANCH   2  10
BRANCH   9  13
HETATM   13  N   UNL     1       7.746  -0.142  20.477  1.00  0.00    -0.107 N 
HETATM   14  O   UNL     1       6.774  -0.831  20.788  1.00  0.00    -0.531 OA
HETATM   15  O   UNL     1       7.983   0.265  19.354  1.00  0.00    -0.531 OA
ENDBRANCH   9  13
TORSDOF 3
ENDMDL
MODEL 9
REMARK VINA RESULT:    -4.653      3.898      5.146
REMARK INTER + INTRA:          -5.756
REMARK INTER:                  -5.452
REMARK INTRA:                  -0.304
REMARK UNBOUND:                -0.287
REMARK  3 active torsions:
REMARK  status: ('A' for Active; 'I' for Inactive)
REMARK    1  A    between atoms: C_4  and  C_13 
REMARK    2  A    between atoms: C_5  and  C_13 
REMARK    3  A    between atoms: N_10  and  C_15 
ROOT
HETATM    1  C   UNL     1       7.517  -0.979  21.648  1.00  0.00     0.133 C 
HETATM    2  C   UNL     1       8.954   0.549  23.977  1.00  0.00    -0.013 C 
HETATM    3  S   UNL     1       8.236   1.754  21.819  1.00  0.00    -0.076 SA
HETATM    4  H   UNL     1       8.285  -2.505  22.751  1.00  0.00     0.166 HD
HETATM    5 CL   UNL     1       9.292  -1.973  24.997  1.00  0.00    -0.064 Cl
HETATM    6  C   UNL     1       8.196   1.538  23.459  1.00  0.00     0.062 C 
HETATM    7  C   UNL     1       8.771  -0.842  23.784  1.00  0.00     0.110 C 
HETATM    8  N   UNL     1       8.229  -1.492  22.702  1.00  0.00    -0.353 N 
HETATM    9  C   UNL     1       7.617   0.273  21.155  1.00  0.00     0.158 C 
ENDROOT
BRANCH   2  10
HETATM   10  C   UNL     1      10.135   1.222  24.661  1.00  0.00     0.042 C 
BRANCH  10  11
HETATM   11  C   UNL     1      11.555   1.273  24.002  1.00  0.00     0.000 C 
HETATM   12  C   UNL     1      12.374   0.081  24.480  1.00  0.00     0.005 C 
ENDBRANCH  10  11
ENDBRANCH   2  10
BRANCH   9  13
HETATM   13  N   UNL     1       7.193   0.585  19.834  1.00  0.00    -0.107 N 
HETATM   14  O   UNL     1       6.117   1.167  19.691  1.00  0.00    -0.531 OA
HETATM   15  O   UNL     1       7.903   0.195  18.925  1.00  0.00    -0.531 OA
ENDBRANCH   9  13
TORSDOF 3
ENDMDL
