stable:False satoms:21 tatoms:24 sratio:0.875
  -OEChem-07092417303D

 24 24  0     0  0  0  0  0  0999 V2000
   10.8330   -1.0264   20.2649 C   0  0  0  0  0  0  0  0  0  0  0  0
    9.9223    2.2582   19.7554 O   0  0  0  0  0  0  0  0  0  0  0  0
   10.6023    0.8545   18.2424 O   0  0  0  0  0  0  0  0  0  0  0  0
    8.8514   -1.6891   22.6013 C   0  0  0  0  0  0  0  0  0  0  0  0
    6.8026   -2.5659   26.1606 H   0  0  0  0  0  0  0  0  0  0  0  0
    6.7230   -1.5392   24.2561 C   0  0  0  0  0  0  0  0  0  0  0  0
    8.5878    0.4391   21.1781 S   0  0  0  0  0  0  0  0  0  0  0  0
   11.8511   -2.4497   21.2993 H   0  0  0  0  0  0  0  0  0  0  0  0
    6.4616   -1.6082   25.7549 C   0  0  0  0  0  0  0  0  0  0  0  0
    6.9806   -0.8036   26.2749 H   0  0  0  0  0  0  0  0  0  0  0  0
   10.6539   -3.6818   23.1402 Cl  0  0  0  0  0  0  0  0  0  0  0  0
   10.2076    1.1273   19.3624 N   0  0  0  0  0  0  0  0  0  0  0  0
    8.0381   -1.0048   21.7697 C   0  3  0  0  0  0  0  0  0  0  0  0
   11.4732   -1.1695   19.3936 H   0  0  0  0  0  0  0  0  0  0  0  0
    6.9987   -1.2615   21.5761 H   0  0  0  0  0  0  0  0  0  0  0  0
   10.0857   -2.2926   22.2628 C   0  0  0  0  0  0  0  0  0  0  0  0
    5.4039   -1.5211   25.9769 H   0  0  0  0  0  0  0  0  0  0  0  0
    6.3021   -2.4051   23.7370 H   0  0  0  0  0  0  0  0  0  0  0  0
    8.2676   -1.5374   23.9991 C   0  0  0  0  0  0  0  0  0  0  0  0
    6.2572   -0.6501   23.8393 H   0  0  0  0  0  0  0  0  0  0  0  0
    8.6171   -0.5524   24.2963 H   0  0  0  0  0  0  0  0  0  0  0  0
   10.9866   -1.9162   21.2972 N   0  0  0  0  0  0  0  0  0  0  0  0
    9.9990    0.0345   20.2477 C   0  0  0  0  0  0  0  0  0  0  0  0
    8.6774   -2.3292   24.6104 H   0  0  0  0  0  0  0  0  0  0  0  0
  3 12  2  0  0  0  0
  2 12  2  0  0  0  0
 12 23  1  0  0  0  0
  1 14  1  0  0  0  0
  1 23  2  0  0  0  0
  7 23  1  0  0  0  0
  1 22  1  0  0  0  0
  7 13  1  0  0  0  0
  8 22  1  0  0  0  0
 16 22  1  0  0  0  0
 13 15  1  0  0  0  0
  4 13  1  0  0  0  0
  4 16  2  0  0  0  0
 11 16  1  0  0  0  0
  4 19  1  0  0  0  0
  6 18  1  0  0  0  0
  6 20  1  0  0  0  0
  6 19  1  0  0  0  0
 19 21  1  0  0  0  0
 19 24  1  0  0  0  0
  6  9  1  0  0  0  0
  9 17  1  0  0  0  0
  5  9  1  0  0  0  0
  9 10  1  0  0  0  0
M  CHG  1  13   1
M  END
> <Shapegauss>
-72.469742

$$$$
