stable:False satoms:17 tatoms:24 sratio:0.7083333333333334
  -OEChem-08062407353D

 28 28  0     0  0  0  0  0  0999 V2000
   -6.1261   -4.8807  -25.6042 F   0  0  0  0  0  0  0  0  0  0  0  0
   -7.4180   -4.5803  -25.6268 C   0  0  0  0  0  0  0  0  0  0  0  0
   -8.0337   -5.5135  -25.8013 H   0  0  0  0  0  0  0  0  0  0  0  0
   -7.5303   -3.8040  -26.7250 F   0  0  0  0  0  0  0  0  0  0  0  0
   -7.7738   -3.8959  -24.4756 N   0  0  0  0  0  0  0  0  0  0  0  0
   -8.5948   -3.1115  -24.0729 C   0  0  0  0  0  0  0  0  0  0  0  0
   -8.9412   -2.2473  -23.4285 N   0  0  0  0  0  0  0  0  0  0  0  0
   -9.9370   -1.3776  -23.1242 C   0  0  0  0  0  0  0  0  0  0  0  0
  -11.2136    0.2414  -24.2854 H   0  0  0  0  0  0  0  0  0  0  0  0
  -11.9068   -0.4932  -23.8235 C   0  0  0  0  0  0  0  0  0  0  0  0
  -12.7765   -0.6542  -24.4695 H   0  0  0  0  0  0  0  0  0  0  0  0
  -12.3281   -0.2211  -22.8437 H   0  0  0  0  0  0  0  0  0  0  0  0
  -11.1820   -1.6928  -23.5215 O   0  0  0  0  0  0  0  0  0  0  0  0
   -9.6363   -0.3944  -22.4234 N   0  3  0  0  0  0  0  0  0  0  0  0
   -9.0192    0.2464  -21.3643 C   0  0  0  0  0  0  0  0  0  0  0  0
   -9.5897    1.1947  -20.9088 O   0  0  0  0  0  0  0  0  0  0  0  0
   -7.7958   -0.1917  -20.9174 N   0  0  0  0  0  0  0  0  0  0  0  0
   -7.1540    0.2619  -19.8111 C   0  0  0  0  0  0  0  0  0  0  0  0
   -7.5659    0.0759  -18.5462 N   0  0  0  0  0  0  0  0  0  0  0  0
   -6.9418    0.6126  -17.5368 N   0  0  0  0  0  0  0  0  0  0  0  0
   -5.8807    1.2903  -17.6817 N   0  0  0  0  0  0  0  0  0  0  0  0
   -5.3381    1.4242  -18.8514 N   0  0  0  0  0  0  0  0  0  0  0  0
   -5.8793    0.9100  -19.9153 C   0  0  0  0  0  0  0  0  0  0  0  0
   -5.3589    1.0086  -20.8810 H   0  0  0  0  0  0  0  0  0  0  0  0
   -7.1418   -4.1297  -23.7367 H   0  0  0  0  0  0  0  0  0  0  0  0
   -9.4824   -3.3766  -24.6282 H   0  0  0  0  0  0  0  0  0  0  0  0
   -7.3407   -0.9040  -21.4518 H   0  0  0  0  0  0  0  0  0  0  0  0
  -10.1059    0.3561  -22.8883 H   0  0  0  0  0  0  0  0  0  0  0  0
 20 21  2  0  0  0  0
 19 20  1  0  0  0  0
 21 22  1  0  0  0  0
 18 19  2  0  0  0  0
 22 23  2  0  0  0  0
 18 23  1  0  0  0  0
 17 18  1  0  0  0  0
 23 24  1  0  0  0  0
 15 16  2  0  0  0  0
 15 17  1  0  0  0  0
 14 15  1  0  0  0  0
  8 14  2  3  0  0  0
 10 12  1  0  0  0  0
  8 13  1  0  0  0  0
  7  8  1  0  0  0  0
 10 13  1  0  0  0  0
  9 10  1  0  0  0  0
 10 11  1  0  0  0  0
  6  7  2  0  0  0  0
  5  6  1  0  0  0  0
  2  5  1  0  0  0  0
  1  2  1  0  0  0  0
  2  3  1  0  0  0  0
  2  4  1  0  0  0  0
  5 25  1  0  0  0  0
  6 26  1  0  0  0  0
 17 27  1  0  0  0  0
 14 28  1  0  0  0  0
M  CHG  1  14   1
M  END
> <Chemgauss4>
-9.003542

$$$$
