stable:False satoms:17 tatoms:24 sratio:0.7083333333333334
  -OEChem-08062407353D

 28 28  0     0  0  0  0  0  0999 V2000
    6.2918   -4.9176   25.6539 F   0  0  0  0  0  0  0  0  0  0  0  0
    7.5837   -4.6173   25.6765 C   0  0  0  0  0  0  0  0  0  0  0  0
    8.1994   -5.5504   25.8510 H   0  0  0  0  0  0  0  0  0  0  0  0
    7.6960   -3.8409   26.7747 F   0  0  0  0  0  0  0  0  0  0  0  0
    7.9395   -3.9328   24.5253 N   0  0  0  0  0  0  0  0  0  0  0  0
    8.7605   -3.1485   24.1226 C   0  0  0  0  0  0  0  0  0  0  0  0
    9.1070   -2.2843   23.4782 N   0  0  0  0  0  0  0  0  0  0  0  0
   10.1027   -1.4145   23.1739 C   0  0  0  0  0  0  0  0  0  0  0  0
   11.3793    0.2044   24.3351 H   0  0  0  0  0  0  0  0  0  0  0  0
   12.0725   -0.5301   23.8732 C   0  0  0  0  0  0  0  0  0  0  0  0
   12.9422   -0.6911   24.5192 H   0  0  0  0  0  0  0  0  0  0  0  0
   12.4938   -0.2580   22.8934 H   0  0  0  0  0  0  0  0  0  0  0  0
   11.3477   -1.7297   23.5712 O   0  0  0  0  0  0  0  0  0  0  0  0
    9.8020   -0.4313   22.4731 N   0  3  0  0  0  0  0  0  0  0  0  0
    9.1849    0.2095   21.4140 C   0  0  0  0  0  0  0  0  0  0  0  0
    9.7555    1.1578   20.9585 O   0  0  0  0  0  0  0  0  0  0  0  0
    7.9615   -0.2287   20.9671 N   0  0  0  0  0  0  0  0  0  0  0  0
    7.3197    0.2250   19.8608 C   0  0  0  0  0  0  0  0  0  0  0  0
    7.7316    0.0390   18.5959 N   0  0  0  0  0  0  0  0  0  0  0  0
    7.1075    0.5757   17.5865 N   0  0  0  0  0  0  0  0  0  0  0  0
    6.0464    1.2534   17.7314 N   0  0  0  0  0  0  0  0  0  0  0  0
    5.5038    1.3873   18.9011 N   0  0  0  0  0  0  0  0  0  0  0  0
    6.0450    0.8731   19.9650 C   0  0  0  0  0  0  0  0  0  0  0  0
    5.5246    0.9717   20.9307 H   0  0  0  0  0  0  0  0  0  0  0  0
    7.3075   -4.1666   23.7864 H   0  0  0  0  0  0  0  0  0  0  0  0
    9.6481   -3.4135   24.6779 H   0  0  0  0  0  0  0  0  0  0  0  0
    7.5064   -0.9409   21.5015 H   0  0  0  0  0  0  0  0  0  0  0  0
   10.2716    0.3192   22.9380 H   0  0  0  0  0  0  0  0  0  0  0  0
 20 21  2  0  0  0  0
 19 20  1  0  0  0  0
 21 22  1  0  0  0  0
 18 19  2  0  0  0  0
 22 23  2  0  0  0  0
 18 23  1  0  0  0  0
 17 18  1  0  0  0  0
 23 24  1  0  0  0  0
 15 16  2  0  0  0  0
 15 17  1  0  0  0  0
 14 15  1  0  0  0  0
  8 14  2  3  0  0  0
 10 12  1  0  0  0  0
  8 13  1  0  0  0  0
  7  8  1  0  0  0  0
 10 13  1  0  0  0  0
  9 10  1  0  0  0  0
 10 11  1  0  0  0  0
  6  7  2  0  0  0  0
  5  6  1  0  0  0  0
  2  5  1  0  0  0  0
  1  2  1  0  0  0  0
  2  3  1  0  0  0  0
  2  4  1  0  0  0  0
  5 25  1  0  0  0  0
  6 26  1  0  0  0  0
 17 27  1  0  0  0  0
 14 28  1  0  0  0  0
M  CHG  1  14   1
M  END
> <Chemgauss4>
-9.271658

$$$$
