stable:False satoms:14 tatoms:24 sratio:0.5833333333333334
  -OEChem-07092417373D

 24 24  0     1  0  0  0  0  0999 V2000
    7.2092   -4.4106   26.2316 H   0  0  0  0  0  0  0  0  0  0  0  0
    8.2240   -4.1232   25.9211 C   0  0  0  0  0  0  0  0  0  0  0  0
    8.8167   -5.0208   25.7419 H   0  0  0  0  0  0  0  0  0  0  0  0
    8.7194   -3.5428   26.7086 H   0  0  0  0  0  0  0  0  0  0  0  0
    8.0697   -3.3388   24.7214 N   0  0  0  0  0  0  0  0  0  0  0  0
    8.8954   -2.6776   24.2037 C   0  0  0  0  0  0  0  0  0  0  0  0
    9.5833   -1.7442   23.4564 C   0  0  0  0  0  0  0  0  0  0  0  0
   10.4013   -1.1140   23.0141 C   0  0  3  0  0  0  0  0  0  0  0  0
   11.6520   -0.0812   24.6796 H   0  0  0  0  0  0  0  0  0  0  0  0
   13.3038   -0.0667   24.0789 H   0  0  0  0  0  0  0  0  0  0  0  0
   12.3894   -0.4443   23.9616 C   0  0  0  0  0  0  0  0  0  0  0  0
   11.9428   -1.2690   23.0748 C   0  0  0  0  0  0  0  0  0  0  0  0
   12.2670   -2.0258   22.4713 H   0  0  0  0  0  0  0  0  0  0  0  0
    9.8876   -0.3820   22.3642 O   0  0  0  0  0  0  0  0  0  0  0  0
    8.2326    0.0579   20.9838 C   0  3  0  0  0  0  0  0  0  0  0  0
    9.1858    0.7475   20.8171 H   0  0  0  0  0  0  0  0  0  0  0  0
    7.7304   -0.7701   21.5919 N   0  3  0  0  0  0  0  0  0  0  0  0
    7.1904   -0.0830   20.4182 C   0  0  2  0  0  0  0  0  0  0  0  0
    7.3188   -0.0902   18.8705 N   0  0  0  0  0  0  0  0  0  0  0  0
    6.5029    0.4211   18.2654 N   0  0  0  0  0  0  0  0  0  0  0  0
    5.8194    0.8147   17.7102 H   0  0  0  0  0  0  0  0  0  0  0  0
    5.1511    0.9654   19.7726 O   0  0  0  0  0  0  0  0  0  0  0  0
    5.7585    0.4834   20.6239 C   0  0  0  0  0  0  0  0  0  0  0  0
    5.3326    0.4042   21.6137 H   0  0  0  0  0  0  0  0  0  0  0  0
 20 21  1  0  0  0  0
 19 20  2  3  0  0  0
 18 19  1  0  0  0  0
 22 23  2  0  0  0  0
 18 23  1  0  0  0  0
 15 18  1  0  0  0  0
 17 18  1  0  0  0  0
 23 24  1  0  0  0  0
 15 16  1  0  0  0  0
 15 17  1  0  0  0  0
  8 14  1  0  0  0  0
  7 14  1  0  0  0  0
 12 13  1  0  0  0  0
  8 12  1  0  0  0  0
  7  8  1  0  0  0  0
 11 12  2  0  0  0  0
  6  7  2  0  0  0  0
 10 11  1  0  0  0  0
  9 11  1  0  0  0  0
  5  6  1  0  0  0  0
  2  5  1  0  0  0  0
  2  3  1  0  0  0  0
  1  2  1  0  0  0  0
  2  4  1  0  0  0  0
M  CHG  2  15   1  17   1
M  END
> <Shapegauss>
-180.416351

$$$$
