REMARK  6 active torsions:
REMARK  status: ('A' for Active; 'I' for Inactive)
REMARK    1  A    between atoms: S_2  and  N_5 
REMARK    2  A    between atoms: C_7  and  C_8 
REMARK    3  A    between atoms: C_8  and  C_9 
REMARK    4  A    between atoms: C_9  and  C_15 
REMARK    5  A    between atoms: C_15  and  C_16 
REMARK       I    between atoms: C_16  and  N_18 
REMARK    6  A    between atoms: N_18  and  C_20 
ROOT
HETATM    1  C   UNL     1      10.301  -1.125  23.263  1.00  0.00     0.076 C 
HETATM    2  C   UNL     1      11.013  -0.009  24.285  1.00  0.00     0.003 C 
HETATM    3  C   UNL     1      12.075   0.310  24.245  1.00  0.00    -0.002 C 
HETATM    4  C   UNL     1      13.111  -0.171  23.468  1.00  0.00    -0.001 C 
HETATM    5  C   UNL     1      12.712  -1.250  22.667  1.00  0.00    -0.002 C 
HETATM    6  C   UNL     1      11.813  -1.760  22.531  1.00  0.00     0.003 C 
ENDROOT
BRANCH   1   7
HETATM    7  C   UNL     1       9.414  -1.966  23.485  1.00  0.00     0.021 C 
BRANCH   7   8
HETATM    8  C   UNL     1       8.973  -2.922  24.124  1.00  0.00     0.098 C 
HETATM    9  N   UNL     1       8.138  -3.584  24.694  1.00  0.00    -0.296 N 
ATOM     10  HN  UNL     1       7.258  -3.697  24.191  1.00  0.00     0.177 HD
BRANCH   9  11
HETATM   11  S   UNL     1       8.205  -4.303  26.105  1.00  0.00     0.226 S 
HETATM   12  C   UNL     1       6.573  -4.900  26.445  1.00  0.00     0.186 C 
HETATM   13  O   UNL     1       9.069  -5.487  26.099  1.00  0.00    -0.206 OA
HETATM   14  O   UNL     1       8.604  -3.411  27.140  1.00  0.00    -0.206 OA
ENDBRANCH   9  11
ENDBRANCH   7   8
ENDBRANCH   1   7
BRANCH   1  15
HETATM   15  C   UNL     1       9.731  -0.537  22.351  1.00  0.00    -0.061 C 
BRANCH  15  16
HETATM   16  C   UNL     1       9.069   0.046  21.396  1.00  0.00     0.290 C 
HETATM   17  O   UNL     1       9.540   1.026  21.008  1.00  0.00    -0.259 OA
HETATM   18  N   UNL     1       7.949  -0.577  21.043  1.00  0.00    -0.315 N 
ATOM     19  HN  UNL     1       7.701  -1.459  21.492  1.00  0.00     0.170 HD
BRANCH  18  20
HETATM   20  C   UNL     1       7.186  -0.091  20.157  1.00  0.00     0.057 A 
HETATM   21  C   UNL     1       7.244   0.001  18.819  1.00  0.00     0.117 A 
HETATM   22  N   UNL     1       6.811   0.328  17.747  1.00  0.00    -0.373 N 
HETATM   23  C   UNL     1       5.628   0.913  18.221  1.00  0.00     0.088 A 
ATOM     24  HN  UNL     1       7.182   0.217  16.803  1.00  0.00     0.164 HD
HETATM   25  C   UNL     1       5.268   0.954  19.409  1.00  0.00     0.026 A 
HETATM   26  C   UNL     1       5.847   0.544  20.528  1.00  0.00    -0.033 A 
HETATM   27  C   UNL     1       5.310   0.680  22.066  1.00  0.00     0.050 C 
ENDBRANCH  18  20
ENDBRANCH  15  16
ENDBRANCH   1  15
TORSDOF 6
