stable:False satoms:20 tatoms:24 sratio:0.8333333333333334
  -OEChem-08052414083D

 29 29  0     1  0  0  0  0  0999 V2000
   12.2066    1.1559   25.1259 H   0  0  0  0  0  0  0  0  0  0  0  0
   12.0756    0.6380   24.1795 C   0  0  0  0  0  0  0  0  0  0  0  0
   10.4297   -0.0543   25.0661 H   0  0  0  0  0  0  0  0  0  0  0  0
   12.2210    1.3714   23.3802 H   0  0  0  0  0  0  0  0  0  0  0  0
    7.9679   -3.7505   26.7885 H   0  0  0  0  0  0  0  0  0  0  0  0
   13.9412   -0.3290   23.5082 H   0  0  0  0  0  0  0  0  0  0  0  0
    9.6585   -2.0263   23.2864 C   0  0  0  0  0  0  0  0  0  0  0  0
    9.0911   -1.0855   25.9893 C   0  0  0  0  0  0  0  0  0  0  0  0
    7.5909   -2.7727   26.5389 C   0  0  0  0  0  0  0  0  0  0  0  0
    9.5528   -2.5172   22.0428 N   0  0  0  0  0  0  0  0  0  0  0  0
    8.7041   -2.5246   24.1799 C   0  0  3  0  0  0  0  0  0  0  0  0
    9.4060   -2.0005   20.9797 O   0  0  0  0  0  0  0  0  0  0  0  0
    8.5254   -2.0831   25.5516 C   0  0  0  0  0  0  0  0  0  0  0  0
    8.9018   -3.6047   24.2449 H   0  0  0  0  0  0  0  0  0  0  0  0
   13.2087   -1.0345   24.9591 H   0  0  0  0  0  0  0  0  0  0  0  0
    9.7429   -0.5097   25.3490 H   0  0  0  0  0  0  0  0  0  0  0  0
   10.7684    0.0501   24.1310 N   0  3  0  0  0  0  0  0  0  0  0  0
   12.3921   -2.5391   23.2862 H   0  0  0  0  0  0  0  0  0  0  0  0
   13.0100   -0.5658   24.0016 C   0  0  0  0  0  0  0  0  0  0  0  0
    7.5243   -2.1852   27.4380 H   0  0  0  0  0  0  0  0  0  0  0  0
   12.1494   -1.4995   23.1229 C   0  0  0  0  0  0  0  0  0  0  0  0
    6.6168   -2.8827   26.0936 H   0  0  0  0  0  0  0  0  0  0  0  0
   12.2827   -1.2653   22.0661 H   0  0  0  0  0  0  0  0  0  0  0  0
   10.7631   -1.1627   23.5308 C   0  0  3  0  0  0  0  0  0  0  0  0
    8.9370   -0.7836   27.0148 H   0  0  0  0  0  0  0  0  0  0  0  0
    7.7327   -2.3583   23.6914 H   0  0  0  0  0  0  0  0  0  0  0  0
    9.3728   -2.6681   20.3045 H   0  0  0  0  0  0  0  0  0  0  0  0
   10.9295   -1.6475   24.5041 H   0  0  0  0  0  0  0  0  0  0  0  0
   10.1614    0.6611   23.6229 H   0  0  0  0  0  0  0  0  0  0  0  0
  9 20  1  0  0  0  0
  5  9  1  0  0  0  0
  9 22  1  0  0  0  0
  9 13  1  0  0  0  0
  8 16  1  0  0  0  0
  8 13  2  0  0  0  0
 11 13  1  0  0  0  0
 15 19  1  0  0  0  0
 11 14  1  0  0  0  0
  7 11  1  0  0  0  0
  1  2  1  0  0  0  0
 18 21  1  0  0  0  0
  2 19  1  0  0  0  0
 19 21  1  0  0  0  0
  6 19  1  0  0  0  0
  3 17  1  0  0  0  0
  2 17  1  0  0  0  0
 17 24  1  0  0  0  0
  7 24  1  0  0  0  0
  7 10  2  3  0  0  0
  2  4  1  0  0  0  0
 21 24  1  0  0  0  0
 21 23  1  0  0  0  0
 10 12  1  0  0  0  0
  8 25  1  0  0  0  0
 11 26  1  0  0  0  0
 12 27  1  0  0  0  0
 24 28  1  0  0  0  0
 17 29  1  0  0  0  0
M  CHG  1  17   1
M  END
> <Chemgauss4>
-6.063065

$$$$
