stable:False satoms:20 tatoms:24 sratio:0.8333333333333334
  -OEChem-08052414083D

 29 29  0     1  0  0  0  0  0999 V2000
  -12.3142    1.3040  -25.4755 H   0  0  0  0  0  0  0  0  0  0  0  0
  -12.1832    0.7861  -24.5292 C   0  0  0  0  0  0  0  0  0  0  0  0
  -10.5373    0.0937  -25.4158 H   0  0  0  0  0  0  0  0  0  0  0  0
  -12.3286    1.5194  -23.7299 H   0  0  0  0  0  0  0  0  0  0  0  0
   -8.0755   -3.6025  -27.1381 H   0  0  0  0  0  0  0  0  0  0  0  0
  -14.0488   -0.1809  -23.8578 H   0  0  0  0  0  0  0  0  0  0  0  0
   -9.7661   -1.8782  -23.6361 C   0  0  0  0  0  0  0  0  0  0  0  0
   -9.1986   -0.9374  -26.3390 C   0  0  0  0  0  0  0  0  0  0  0  0
   -7.6985   -2.6246  -26.8886 C   0  0  0  0  0  0  0  0  0  0  0  0
   -9.6604   -2.3692  -22.3925 N   0  0  0  0  0  0  0  0  0  0  0  0
   -8.8117   -2.3765  -24.5296 C   0  0  3  0  0  0  0  0  0  0  0  0
   -9.5135   -1.8525  -21.3294 O   0  0  0  0  0  0  0  0  0  0  0  0
   -8.6329   -1.9351  -25.9013 C   0  0  0  0  0  0  0  0  0  0  0  0
   -9.0093   -3.4567  -24.5946 H   0  0  0  0  0  0  0  0  0  0  0  0
  -13.3162   -0.8864  -25.3088 H   0  0  0  0  0  0  0  0  0  0  0  0
   -9.8504   -0.3616  -25.6987 H   0  0  0  0  0  0  0  0  0  0  0  0
  -10.8760    0.1981  -24.4807 N   0  3  0  0  0  0  0  0  0  0  0  0
  -12.4997   -2.3910  -23.6359 H   0  0  0  0  0  0  0  0  0  0  0  0
  -13.1175   -0.4177  -24.3513 C   0  0  0  0  0  0  0  0  0  0  0  0
   -7.6319   -2.0371  -27.7877 H   0  0  0  0  0  0  0  0  0  0  0  0
  -12.2569   -1.3514  -23.4726 C   0  0  0  0  0  0  0  0  0  0  0  0
   -6.7244   -2.7346  -26.4432 H   0  0  0  0  0  0  0  0  0  0  0  0
  -12.3902   -1.1173  -22.4157 H   0  0  0  0  0  0  0  0  0  0  0  0
  -10.8707   -1.0146  -23.8805 C   0  0  3  0  0  0  0  0  0  0  0  0
   -9.0445   -0.6355  -27.3645 H   0  0  0  0  0  0  0  0  0  0  0  0
   -7.8403   -2.2103  -24.0411 H   0  0  0  0  0  0  0  0  0  0  0  0
   -9.4804   -2.5200  -20.6542 H   0  0  0  0  0  0  0  0  0  0  0  0
  -11.0371   -1.4995  -24.8537 H   0  0  0  0  0  0  0  0  0  0  0  0
  -10.2690    0.8092  -23.9726 H   0  0  0  0  0  0  0  0  0  0  0  0
  9 20  1  0  0  0  0
  5  9  1  0  0  0  0
  9 22  1  0  0  0  0
  9 13  1  0  0  0  0
  8 16  1  0  0  0  0
  8 13  2  0  0  0  0
 11 13  1  0  0  0  0
 15 19  1  0  0  0  0
 11 14  1  0  0  0  0
  7 11  1  0  0  0  0
  1  2  1  0  0  0  0
 18 21  1  0  0  0  0
  2 19  1  0  0  0  0
 19 21  1  0  0  0  0
  6 19  1  0  0  0  0
  3 17  1  0  0  0  0
  2 17  1  0  0  0  0
 17 24  1  0  0  0  0
  7 24  1  0  0  0  0
  7 10  2  3  0  0  0
  2  4  1  0  0  0  0
 21 24  1  0  0  0  0
 21 23  1  0  0  0  0
 10 12  1  0  0  0  0
  8 25  1  0  0  0  0
 11 26  1  0  0  0  0
 12 27  1  0  0  0  0
 24 28  1  0  0  0  0
 17 29  1  0  0  0  0
M  CHG  1  17   1
M  END
> <Chemgauss4>
-5.884455

$$$$
