stable:False satoms:8 tatoms:24 sratio:0.3333333333333333
  -OEChem-08062411193D

 36 39  0     1  0  0  0  0  0999 V2000
    5.9298   -5.3913   25.7602 Cl  0  0  0  0  0  0  0  0  0  0  0  0
    7.7935   -4.7344   25.5889 S   0  0  0  0  0  0  0  0  0  0  0  0
    8.5997   -5.8724   25.4103 O   0  0  0  0  0  0  0  0  0  0  0  0
    8.0522   -3.9509   26.7499 O   0  0  0  0  0  0  0  0  0  0  0  0
    7.7344   -3.7951   24.2413 N   0  0  0  0  0  0  0  0  0  0  0  0
    8.4912   -3.0611   23.8003 C   0  0  0  0  0  0  0  0  0  0  0  0
    9.0451   -2.0468   23.2763 C   0  0  0  0  0  0  0  0  0  0  0  0
   10.2594   -1.2278   23.1786 C   0  0  1  0  0  0  0  0  0  0  0  0
   10.7850   -0.3295   24.3106 C   0  0  0  0  0  0  0  0  0  0  0  0
   11.8381    0.0407   24.4296 C   0  0  0  0  0  0  0  0  0  0  0  0
   12.8243   -0.3176   23.7493 C   0  0  0  0  0  0  0  0  0  0  0  0
   12.4843   -1.1676   23.0323 C   0  0  0  0  0  0  0  0  0  0  0  0
   11.5516   -1.7677   22.6712 C   0  0  0  0  0  0  0  0  0  0  0  0
    9.2790   -0.9260   22.5395 C   0  0  3  0  0  0  0  0  0  0  0  0
    8.7445    0.0882   21.5059 C   0  0  0  0  0  0  0  0  0  0  0  0
    9.3527    1.0430   21.2600 O   0  0  0  0  0  0  0  0  0  0  0  0
    7.5769   -0.3513   21.0705 N   0  0  0  0  0  0  0  0  0  0  0  0
    6.8563    0.1992   20.1769 C   0  0  0  0  0  0  0  0  0  0  0  0
    7.3629    0.3323   18.5440 S   0  3  1  0  0  0  0  0  0  0  0  0
    6.3923    0.9095   17.2388 N   0  0  0  0  0  0  0  0  0  0  0  0
    6.0504    0.9570   18.1796 C   0  0  0  0  0  0  0  0  0  0  0  0
    5.2624    1.1414   19.3312 C   0  0  0  0  0  0  0  0  0  0  0  0
    5.5737    0.7207   20.4162 C   0  0  0  0  0  0  0  0  0  0  0  0
    5.0600    0.7112   21.3839 H   0  0  0  0  0  0  0  0  0  0  0  0
    6.9134   -3.2397   24.3739 H   0  0  0  0  0  0  0  0  0  0  0  0
    9.3734   -3.6751   23.9056 H   0  0  0  0  0  0  0  0  0  0  0  0
   10.0727   -0.0256   25.0634 H   0  0  0  0  0  0  0  0  0  0  0  0
   12.0158    0.7736   25.2026 H   0  0  0  0  0  0  0  0  0  0  0  0
   13.8213    0.0923   23.8163 H   0  0  0  0  0  0  0  0  0  0  0  0
   13.3522   -1.5380   22.5070 H   0  0  0  0  0  0  0  0  0  0  0  0
   11.5292   -1.7464   21.5717 H   0  0  0  0  0  0  0  0  0  0  0  0
   11.6529   -2.8074   23.0158 H   0  0  0  0  0  0  0  0  0  0  0  0
    8.9186   -0.2932   23.3639 H   0  0  0  0  0  0  0  0  0  0  0  0
    7.2272   -1.1936   21.4806 H   0  0  0  0  0  0  0  0  0  0  0  0
    5.9883    0.2630   16.5916 H   0  0  0  0  0  0  0  0  0  0  0  0
    4.3344    1.6859   19.2376 H   0  0  0  0  0  0  0  0  0  0  0  0
 20 21  1  0  0  0  0
 19 20  1  0  0  0  0
 19 21  1  0  0  0  0
 21 22  2  0  0  0  0
 18 19  1  0  0  0  0
 22 23  1  0  0  0  0
 18 23  2  0  0  0  0
 17 18  1  0  0  0  0
 23 24  1  0  0  0  0
 15 16  2  0  0  0  0
 15 17  1  0  0  0  0
 14 15  1  0  0  0  0
  8 14  1  0  0  0  0
  7 14  1  0  0  0  0
 12 13  1  0  0  0  0
  8 13  1  0  0  0  0
 11 12  2  0  0  0  0
  7  8  1  0  0  0  0
  8  9  1  0  0  0  0
  6  7  2  3  0  0  0
 10 11  1  0  0  0  0
  5  6  1  0  0  0  0
  9 10  2  0  0  0  0
  2  5  1  0  0  0  0
  2  3  2  0  0  0  0
  1  2  1  0  0  0  0
  2  4  2  0  0  0  0
  5 25  1  0  0  0  0
  6 26  1  0  0  0  0
  9 27  1  0  0  0  0
 10 28  1  0  0  0  0
 11 29  1  0  0  0  0
 12 30  1  0  0  0  0
 13 31  1  0  0  0  0
 13 32  1  0  0  0  0
 14 33  1  0  0  0  0
 17 34  1  0  0  0  0
 20 35  1  0  0  0  0
 22 36  1  0  0  0  0
M  CHG  1  19   1
M  END
> <Chemgauss4>
-9.773234

$$$$
