stable:False satoms:8 tatoms:24 sratio:0.3333333333333333
  -OEChem-08062411193D

 36 39  0     1  0  0  0  0  0999 V2000
   -6.0536   -5.5897  -25.9822 Cl  0  0  0  0  0  0  0  0  0  0  0  0
   -7.9173   -4.9328  -25.8109 S   0  0  0  0  0  0  0  0  0  0  0  0
   -8.7235   -6.0709  -25.6323 O   0  0  0  0  0  0  0  0  0  0  0  0
   -8.1760   -4.1493  -26.9719 O   0  0  0  0  0  0  0  0  0  0  0  0
   -7.8582   -3.9935  -24.4633 N   0  0  0  0  0  0  0  0  0  0  0  0
   -8.6150   -3.2596  -24.0223 C   0  0  0  0  0  0  0  0  0  0  0  0
   -9.1689   -2.2452  -23.4983 C   0  0  0  0  0  0  0  0  0  0  0  0
  -10.3831   -1.4263  -23.4006 C   0  0  1  0  0  0  0  0  0  0  0  0
  -10.9088   -0.5279  -24.5326 C   0  0  0  0  0  0  0  0  0  0  0  0
  -11.9619   -0.1578  -24.6516 C   0  0  0  0  0  0  0  0  0  0  0  0
  -12.9481   -0.5160  -23.9713 C   0  0  0  0  0  0  0  0  0  0  0  0
  -12.6080   -1.3661  -23.2543 C   0  0  0  0  0  0  0  0  0  0  0  0
  -11.6754   -1.9662  -22.8933 C   0  0  0  0  0  0  0  0  0  0  0  0
   -9.4028   -1.1244  -22.7615 C   0  0  3  0  0  0  0  0  0  0  0  0
   -8.8683   -0.1102  -21.7279 C   0  0  0  0  0  0  0  0  0  0  0  0
   -9.4765    0.8445  -21.4820 O   0  0  0  0  0  0  0  0  0  0  0  0
   -7.7007   -0.5497  -21.2925 N   0  0  0  0  0  0  0  0  0  0  0  0
   -6.9801    0.0007  -20.3989 C   0  0  0  0  0  0  0  0  0  0  0  0
   -7.4867    0.1339  -18.7660 S   0  3  1  0  0  0  0  0  0  0  0  0
   -6.5161    0.7110  -17.4608 N   0  0  0  0  0  0  0  0  0  0  0  0
   -6.1742    0.7585  -18.4016 C   0  0  0  0  0  0  0  0  0  0  0  0
   -5.3862    0.9429  -19.5532 C   0  0  0  0  0  0  0  0  0  0  0  0
   -5.6975    0.5223  -20.6382 C   0  0  0  0  0  0  0  0  0  0  0  0
   -5.1838    0.5127  -21.6059 H   0  0  0  0  0  0  0  0  0  0  0  0
   -7.0372   -3.4381  -24.5959 H   0  0  0  0  0  0  0  0  0  0  0  0
   -9.4972   -3.8736  -24.1276 H   0  0  0  0  0  0  0  0  0  0  0  0
  -10.1965   -0.2240  -25.2854 H   0  0  0  0  0  0  0  0  0  0  0  0
  -12.1396    0.5752  -25.4246 H   0  0  0  0  0  0  0  0  0  0  0  0
  -13.9451   -0.1061  -24.0383 H   0  0  0  0  0  0  0  0  0  0  0  0
  -13.4759   -1.7365  -22.7290 H   0  0  0  0  0  0  0  0  0  0  0  0
  -11.6530   -1.9448  -21.7937 H   0  0  0  0  0  0  0  0  0  0  0  0
  -11.7766   -3.0059  -23.2378 H   0  0  0  0  0  0  0  0  0  0  0  0
   -9.0424   -0.4916  -23.5859 H   0  0  0  0  0  0  0  0  0  0  0  0
   -7.3510   -1.3920  -21.7026 H   0  0  0  0  0  0  0  0  0  0  0  0
   -6.1121    0.0645  -16.8137 H   0  0  0  0  0  0  0  0  0  0  0  0
   -4.4582    1.4874  -19.4596 H   0  0  0  0  0  0  0  0  0  0  0  0
 20 21  1  0  0  0  0
 19 20  1  0  0  0  0
 19 21  1  0  0  0  0
 21 22  2  0  0  0  0
 18 19  1  0  0  0  0
 22 23  1  0  0  0  0
 18 23  2  0  0  0  0
 17 18  1  0  0  0  0
 23 24  1  0  0  0  0
 15 16  2  0  0  0  0
 15 17  1  0  0  0  0
 14 15  1  0  0  0  0
  8 14  1  0  0  0  0
  7 14  1  0  0  0  0
 12 13  1  0  0  0  0
  8 13  1  0  0  0  0
 11 12  2  0  0  0  0
  7  8  1  0  0  0  0
  8  9  1  0  0  0  0
  6  7  2  3  0  0  0
 10 11  1  0  0  0  0
  5  6  1  0  0  0  0
  9 10  2  0  0  0  0
  2  5  1  0  0  0  0
  2  3  2  0  0  0  0
  1  2  1  0  0  0  0
  2  4  2  0  0  0  0
  5 25  1  0  0  0  0
  6 26  1  0  0  0  0
  9 27  1  0  0  0  0
 10 28  1  0  0  0  0
 11 29  1  0  0  0  0
 12 30  1  0  0  0  0
 13 31  1  0  0  0  0
 13 32  1  0  0  0  0
 14 33  1  0  0  0  0
 17 34  1  0  0  0  0
 20 35  1  0  0  0  0
 22 36  1  0  0  0  0
M  CHG  1  19   1
M  END
> <Chemgauss4>
-10.098811

$$$$
