stable:False satoms:8 tatoms:24 sratio:0.3333333333333333
  -OEChem-07092417403D

 24 24  0     1  0  0  0  0  0999 V2000
    6.7514   -4.7902   26.4361 C   0  0  0  0  0  0  0  0  0  0  0  0
    8.2110   -4.3469   26.1709 S   0  0  0  0  0  0  0  0  0  0  0  0
    9.0474   -5.4903   26.0198 O   0  0  0  0  0  0  0  0  0  0  0  0
    8.6128   -3.4678   27.1855 O   0  0  0  0  0  0  0  0  0  0  0  0
    8.0383   -3.5659   24.7740 N   0  0  0  0  0  0  0  0  0  0  0  0
    8.8420   -2.9199   24.2277 C   0  0  0  0  0  0  0  0  0  0  0  0
    9.4474   -1.9928   23.6971 C   0  0  0  0  0  0  0  0  0  0  0  0
   10.1739   -1.0275   23.4256 C   0  5  1  0  0  0  0  0  0  0  0  0
   10.5599   -0.4379   24.3274 H   0  0  0  0  0  0  0  0  0  0  0  0
   12.7419    0.1508   23.9997 H   0  0  0  0  0  0  0  0  0  0  0  0
   12.7298   -0.6076   23.3039 C   0  5  0  0  0  0  0  0  0  0  0  0
   12.9870   -1.2717   22.5183 C   0  0  0  0  0  0  0  0  0  0  0  0
   11.9259   -1.6004   22.7409 C   0  0  0  0  0  0  0  0  0  0  0  0
    9.7913   -0.4454   22.3747 C   0  0  0  0  0  0  0  0  0  0  0  0
    9.1463    0.1615   21.3477 C   0  0  0  0  0  0  0  0  0  0  0  0
    9.6037    1.0971   20.7637 O   0  0  0  0  0  0  0  0  0  0  0  0
    7.9295   -0.4127   21.1374 N   0  0  0  0  0  0  0  0  0  0  0  0
    7.1457    0.0505   20.2128 C   0  0  0  0  0  0  0  0  0  0  0  0
    7.1773    0.0758   18.8810 C   0  0  0  0  0  0  0  0  0  0  0  0
    6.6313    0.3564   17.8691 N   0  0  0  0  0  0  0  0  0  0  0  0
    5.5329    0.7917   18.2868 C   0  0  0  0  0  0  0  0  0  0  0  0
    5.2321    0.9184   19.4704 C   0  0  0  0  0  0  0  0  0  0  0  0
    5.8313    0.6544   20.5672 C   0  0  0  0  0  0  0  0  0  0  0  0
    5.4943    0.8303   21.5591 H   0  0  0  0  0  0  0  0  0  0  0  0
 20 21  2  0  0  0  0
 19 20  1  0  0  0  0
 21 22  1  0  0  0  0
 18 19  2  0  0  0  0
 22 23  2  0  0  0  0
 18 23  1  0  0  0  0
 17 18  1  0  0  0  0
 23 24  1  0  0  0  0
 15 16  2  0  0  0  0
 15 17  1  0  0  0  0
 14 15  1  0  0  0  0
  8 14  1  0  0  0  0
 12 13  1  0  0  0  0
 11 12  1  0  0  0  0
 11 13  1  0  0  0  0
 10 11  1  0  0  0  0
  7  8  1  0  0  0  0
  8  9  1  0  0  0  0
  6  7  3  0  0  0  0
  5  6  1  0  0  0  0
  2  5  1  0  0  0  0
  2  3  2  0  0  0  0
  1  2  1  0  0  0  0
  2  4  2  0  0  0  0
M  CHG  2   8  -1  11  -1
M  END
> <Shapegauss>
-256.225342

$$$$
