REMARK  6 active torsions:
REMARK  status: ('A' for Active; 'I' for Inactive)
REMARK    1  A    between atoms: S_2  and  N_5 
REMARK    2  A    between atoms: N_5  and  C_7 
REMARK    3  A    between atoms: C_8  and  C_9 
REMARK    4  A    between atoms: C_9  and  C_13 
REMARK    5  A    between atoms: C_13  and  C_14 
REMARK       I    between atoms: C_14  and  N_16 
REMARK    6  A    between atoms: N_16  and  C_18 
ROOT
HETATM    1  C   UNL     1      12.730  -0.608  23.304  1.00  0.00     0.000 A 
HETATM    2  C   UNL     1      12.987  -1.272  22.518  1.00  0.00     0.000 A 
HETATM    3  C   UNL     1      11.926  -1.600  22.741  1.00  0.00     0.000 A 
ENDROOT
TORSDOF 6
