stable:False satoms:19 tatoms:24 sratio:0.7916666666666666
  -OEChem-08062400413D

 25 27  0     1  0  0  0  0  0999 V2000
   -7.2489   -5.8740  -27.3346 O   0  0  0  0  0  0  0  0  0  0  0  0
   -6.9574   -4.6619  -27.1419 C   0  0  0  0  0  0  0  0  0  0  0  0
   -6.1528   -3.9362  -27.8001 O   0  5  0  0  0  0  0  0  0  0  0  0
   -7.5131   -4.0529  -26.0762 O   0  0  0  0  0  0  0  0  0  0  0  0
   -8.5363   -3.3137  -26.5873 N   0  0  0  0  0  0  0  0  0  0  0  0
   -9.3588   -2.4933  -26.1260 C   0  0  0  0  0  0  0  0  0  0  0  0
   -9.2718   -1.6611  -24.9640 C   0  0  1  0  0  0  0  0  0  0  0  0
   -8.1636   -1.5265  -23.9685 C   0  0  0  0  0  0  0  0  0  0  0  0
   -7.5400   -2.4136  -23.8910 H   0  0  0  0  0  0  0  0  0  0  0  0
   -8.1352   -1.0425  -22.9761 H   0  0  0  0  0  0  0  0  0  0  0  0
   -7.1115   -0.2811  -25.2385 H   0  0  0  0  0  0  0  0  0  0  0  0
   -9.0424    0.5510  -25.3278 C   0  0  0  0  0  0  0  0  0  0  0  0
   -8.7373    1.3799  -25.9102 H   0  0  0  0  0  0  0  0  0  0  0  0
   -8.1556   -0.5172  -24.9935 C   0  0  2  0  0  0  0  0  0  0  0  0
  -10.4803    0.2281  -24.9110 C   0  0  0  0  0  0  0  0  0  0  0  0
  -11.9248   -1.1317  -23.8121 C   0  0  0  0  0  0  0  0  0  0  0  0
  -10.3382   -2.4068  -26.6333 H   0  0  0  0  0  0  0  0  0  0  0  0
  -11.9177    0.8395  -24.7929 C   0  0  0  0  0  0  0  0  0  0  0  0
  -12.7121    0.0338  -24.1268 C   0  0  0  0  0  0  0  0  0  0  0  0
  -12.2204    1.8018  -25.1925 H   0  0  0  0  0  0  0  0  0  0  0  0
  -13.7529    0.1618  -23.8512 H   0  0  0  0  0  0  0  0  0  0  0  0
  -13.5467   -2.0281  -22.7794 O   0  5  0  0  0  0  0  0  0  0  0  0
  -10.6309   -0.9806  -24.5110 C   0  0  0  0  0  0  0  0  0  0  0  0
  -12.3877   -2.2019  -23.1481 N   0  0  0  0  0  0  0  0  0  0  0  0
  -11.8112   -2.3635  -22.3472 H   0  0  0  0  0  0  0  0  0  0  0  0
 18 20  1  0  0  0  0
 19 21  1  0  0  0  0
 18 19  2  0  0  0  0
 15 18  1  0  0  0  0
 16 19  1  0  0  0  0
 12 15  2  0  0  0  0
 15 23  1  0  0  0  0
 22 24  1  0  0  0  0
 12 13  1  0  0  0  0
 16 24  1  0  0  0  0
 16 23  2  0  0  0  0
 12 14  1  0  0  0  0
  7 23  1  0  0  0  0
  6 17  1  0  0  0  0
  7 14  1  0  0  0  0
 11 14  1  0  0  0  0
  8 14  1  0  0  0  0
  6  7  1  0  0  0  0
  7  8  1  0  0  0  0
  5  6  2  0  0  0  0
  8 10  1  0  0  0  0
  8  9  1  0  0  0  0
  4  5  1  0  0  0  0
  2  4  1  0  0  0  0
  2  3  1  0  0  0  0
  1  2  2  0  0  0  0
 24 25  1  0  0  0  0
M  CHG  2   3  -1  22  -1
M  END
> <Chemgauss4>
-7.083660

$$$$
