stable:False satoms:19 tatoms:24 sratio:0.7916666666666666
  -OEChem-08062400413D

 25 27  0     1  0  0  0  0  0999 V2000
    7.2630   -6.2295   26.8218 O   0  0  0  0  0  0  0  0  0  0  0  0
    6.9706   -5.0049   26.7434 C   0  0  0  0  0  0  0  0  0  0  0  0
    6.1739   -4.3421   27.4736 O   0  5  0  0  0  0  0  0  0  0  0  0
    7.5155   -4.3014   25.7317 O   0  0  0  0  0  0  0  0  0  0  0  0
    8.5448   -3.6118   26.2969 N   0  0  0  0  0  0  0  0  0  0  0  0
    9.3631   -2.7527   25.9034 C   0  0  0  0  0  0  0  0  0  0  0  0
    9.2644   -1.8182   24.8230 C   0  0  1  0  0  0  0  0  0  0  0  0
    8.1458   -1.5936   23.8558 C   0  0  0  0  0  0  0  0  0  0  0  0
    7.5205   -2.4700   23.7046 H   0  0  0  0  0  0  0  0  0  0  0  0
    8.1072   -1.0212   22.9120 H   0  0  0  0  0  0  0  0  0  0  0  0
    7.1086   -0.4690   25.2452 H   0  0  0  0  0  0  0  0  0  0  0  0
    9.0411    0.3515   25.3891 C   0  0  0  0  0  0  0  0  0  0  0  0
    8.7431    1.1240   26.0478 H   0  0  0  0  0  0  0  0  0  0  0  0
    8.1497   -0.6818   24.9685 C   0  0  2  0  0  0  0  0  0  0  0  0
   10.4742    0.0679   24.9292 C   0  0  0  0  0  0  0  0  0  0  0  0
   11.9055   -1.1862   23.6956 C   0  0  0  0  0  0  0  0  0  0  0  0
   10.3480   -2.7128   26.4059 H   0  0  0  0  0  0  0  0  0  0  0  0
   11.9108    0.6875   24.8518 C   0  0  0  0  0  0  0  0  0  0  0  0
   12.6972   -0.0542   24.1066 C   0  0  0  0  0  0  0  0  0  0  0  0
   12.2187    1.6095   25.3341 H   0  0  0  0  0  0  0  0  0  0  0  0
   13.7352    0.0985   23.8327 H   0  0  0  0  0  0  0  0  0  0  0  0
   13.5154   -1.9848   22.5682 O   0  5  0  0  0  0  0  0  0  0  0  0
   10.6193   -1.0993   24.4192 C   0  0  0  0  0  0  0  0  0  0  0  0
   12.3602   -2.1915   22.9320 N   0  0  0  0  0  0  0  0  0  0  0  0
   11.7750   -2.2794   22.1259 H   0  0  0  0  0  0  0  0  0  0  0  0
 18 20  1  0  0  0  0
 19 21  1  0  0  0  0
 18 19  2  0  0  0  0
 15 18  1  0  0  0  0
 16 19  1  0  0  0  0
 12 15  2  0  0  0  0
 15 23  1  0  0  0  0
 22 24  1  0  0  0  0
 12 13  1  0  0  0  0
 16 24  1  0  0  0  0
 16 23  2  0  0  0  0
 12 14  1  0  0  0  0
  7 23  1  0  0  0  0
  6 17  1  0  0  0  0
  7 14  1  0  0  0  0
 11 14  1  0  0  0  0
  8 14  1  0  0  0  0
  6  7  1  0  0  0  0
  7  8  1  0  0  0  0
  5  6  2  0  0  0  0
  8 10  1  0  0  0  0
  8  9  1  0  0  0  0
  4  5  1  0  0  0  0
  2  4  1  0  0  0  0
  2  3  1  0  0  0  0
  1  2  2  0  0  0  0
 24 25  1  0  0  0  0
M  CHG  2   3  -1  22  -1
M  END
> <Chemgauss4>
-7.165031

$$$$
