REMARK  8 active torsions:
REMARK  status: ('A' for Active; 'I' for Inactive)
REMARK    1  A    between atoms: O_1  and  O_4 
REMARK    2  A    between atoms: O_4  and  C_7 
REMARK    3  A    between atoms: C_5  and  C_8 
REMARK    4  A    between atoms: C_5  and  C_7 
REMARK    5  A    between atoms: O_6  and  C_7 
REMARK    6  A    between atoms: C_8  and  N_11 
REMARK    7  A    between atoms: O_10  and  N_11 
REMARK    8  A    between atoms: C_12  and  O_15 
ROOT
HETATM    1  C   UNL     1       8.690  -0.178  22.802  1.00  0.00     0.093 C 
HETATM    2 BR   UNL     1       6.927  -0.070  23.570  1.00  0.00    -0.033 Br
ENDROOT
BRANCH   1   3
HETATM    3  C   UNL     1       9.960  -0.090  23.640  1.00  0.00     0.131 C 
BRANCH   3   4
HETATM    4  C   UNL     1      10.747  -1.435  23.652  1.00  0.00     0.299 C 
BRANCH   4   5
HETATM    5  O   UNL     1       9.742  -2.342  23.995  1.00  0.00    -0.208 OA
BRANCH   5   6
HETATM    6  O   UNL     1       8.739  -2.511  24.845  1.00  0.00    -0.243 OA
HETATM    7  C   UNL     1       8.271  -3.732  25.319  1.00  0.00     0.247 C 
ENDBRANCH   5   6
ENDBRANCH   4   5
BRANCH   4   8
HETATM    8  O   UNL     1      11.477  -1.573  22.422  1.00  0.00    -0.368 OA
HETATM    9  H   UNL     1      10.833  -2.381  22.330  1.00  0.00     0.212 HD
ENDBRANCH   4   8
ENDBRANCH   3   4
ENDBRANCH   1   3
BRANCH   1  10
HETATM   10  N   UNL     1       8.436  -0.070  21.540  1.00  0.00    -0.198 N 
HETATM   11  C   UNL     1       7.498  -0.546  20.670  1.00  0.00     0.205 A 
HETATM   12  C   UNL     1       6.830  -0.329  19.356  1.00  0.00     0.343 A 
HETATM   13  O   UNL     1       7.202  -1.471  20.012  1.00  0.00    -0.294 OA
BRANCH  10  14
HETATM   14  O   UNL     1       9.199   0.877  20.864  1.00  0.00    -0.280 OA
HETATM   15  H   UNL     1      10.089   0.515  21.091  1.00  0.00     0.245 HD
ENDBRANCH  10  14
BRANCH  12  16
HETATM   16  O   UNL     1       6.020   0.872  19.380  1.00  0.00    -0.364 OA
HETATM   17  H   UNL     1       5.612   0.606  18.571  1.00  0.00     0.213 HD
ENDBRANCH  12  16
ENDBRANCH   1  10
TORSDOF 8
