MODEL 1
REMARK VINA RESULT:    -5.137      0.000      0.000
REMARK INTER + INTRA:          -7.621
REMARK INTER:                  -7.089
REMARK INTRA:                  -0.532
REMARK UNBOUND:                -0.532
REMARK  8 active torsions:
REMARK  status: ('A' for Active; 'I' for Inactive)
REMARK    1  A    between atoms: O_1  and  O_4 
REMARK    2  A    between atoms: O_4  and  C_7 
REMARK    3  A    between atoms: C_5  and  C_8 
REMARK    4  A    between atoms: C_5  and  C_7 
REMARK    5  A    between atoms: O_6  and  C_7 
REMARK    6  A    between atoms: C_8  and  N_11 
REMARK    7  A    between atoms: O_10  and  N_11 
REMARK    8  A    between atoms: C_12  and  O_15 
ROOT
HETATM    1  C   UNL     1       7.537  14.321   3.123  1.00  0.00     0.093 C 
HETATM    2 BR   UNL     1       6.745  14.310   4.879  1.00  0.00    -0.033 Br
ENDROOT
BRANCH   1   3
HETATM    3  C   UNL     1       7.773  15.604   2.335  1.00  0.00     0.131 C 
BRANCH   3   4
HETATM    4  C   UNL     1       9.000  15.487   1.381  1.00  0.00     0.299 C 
BRANCH   4   5
HETATM    5  O   UNL     1      10.062  15.541   2.287  1.00  0.00    -0.208 OA
BRANCH   5   6
HETATM    6  O   UNL     1      10.841  14.762   3.024  1.00  0.00    -0.243 OA
HETATM    7  C   UNL     1      11.082  14.908   4.386  1.00  0.00     0.247 C 
ENDBRANCH   5   6
ENDBRANCH   4   5
BRANCH   4   8
HETATM    8  O   UNL     1       8.826  14.354   0.515  1.00  0.00    -0.368 OA
HETATM    9  H   UNL     1       9.715  14.081   0.976  1.00  0.00     0.212 HD
ENDBRANCH   4   8
ENDBRANCH   3   4
ENDBRANCH   1   3
BRANCH   1  10
HETATM   10  N   UNL     1       7.515  13.067   2.815  1.00  0.00    -0.198 N 
HETATM   11  C   UNL     1       6.644  12.207   2.211  1.00  0.00     0.205 A 
HETATM   12  C   UNL     1       6.513  10.911   1.487  1.00  0.00     0.343 A 
HETATM   13  O   UNL     1       5.699  11.536   2.392  1.00  0.00    -0.294 OA
BRANCH  10  14
HETATM   14  O   UNL     1       8.720  12.395   2.992  1.00  0.00    -0.280 OA
HETATM   15  H   UNL     1       9.231  13.143   3.385  1.00  0.00     0.245 HD
ENDBRANCH  10  14
BRANCH  12  16
HETATM   16  O   UNL     1       7.157  10.975   0.191  1.00  0.00    -0.364 OA
HETATM   17  H   UNL     1       7.656  11.721   0.482  1.00  0.00     0.213 HD
ENDBRANCH  12  16
ENDBRANCH   1  10
TORSDOF 8
ENDMDL
MODEL 2
REMARK VINA RESULT:    -5.048     31.907     33.258
REMARK INTER + INTRA:          -7.498
REMARK INTER:                  -6.760
REMARK INTRA:                  -0.738
REMARK UNBOUND:                -0.532
REMARK  8 active torsions:
REMARK  status: ('A' for Active; 'I' for Inactive)
REMARK    1  A    between atoms: O_1  and  O_4 
REMARK    2  A    between atoms: O_4  and  C_7 
REMARK    3  A    between atoms: C_5  and  C_8 
REMARK    4  A    between atoms: C_5  and  C_7 
REMARK    5  A    between atoms: O_6  and  C_7 
REMARK    6  A    between atoms: C_8  and  N_11 
REMARK    7  A    between atoms: O_10  and  N_11 
REMARK    8  A    between atoms: C_12  and  O_15 
ROOT
HETATM    1  C   UNL     1      -0.297 -17.927   9.454  1.00  0.00     0.093 C 
HETATM    2 BR   UNL     1      -0.065 -17.866   7.543  1.00  0.00    -0.033 Br
ENDROOT
BRANCH   1   3
HETATM    3  C   UNL     1      -1.529 -17.363  10.152  1.00  0.00     0.131 C 
BRANCH   3   4
HETATM    4  C   UNL     1      -1.293 -15.914  10.675  1.00  0.00     0.299 C 
BRANCH   4   5
HETATM    5  O   UNL     1      -1.124 -16.136  12.043  1.00  0.00    -0.208 OA
BRANCH   5   6
HETATM    6  O   UNL     1      -0.430 -16.873  12.899  1.00  0.00    -0.243 OA
HETATM    7  C   UNL     1      -0.086 -16.507  14.196  1.00  0.00     0.247 C 
ENDBRANCH   5   6
ENDBRANCH   4   5
BRANCH   4   8
HETATM    8  O   UNL     1      -0.262 -15.287   9.896  1.00  0.00    -0.368 OA
HETATM    9  H   UNL     1      -0.993 -14.553   9.834  1.00  0.00     0.212 HD
ENDBRANCH   4   8
ENDBRANCH   3   4
ENDBRANCH   1   3
BRANCH   1  10
HETATM   10  N   UNL     1       0.880 -18.279   9.852  1.00  0.00    -0.198 N 
HETATM   11  C   UNL     1       1.899 -19.055   9.381  1.00  0.00     0.205 A 
HETATM   12  C   UNL     1       3.361 -19.334   9.463  1.00  0.00     0.343 A 
HETATM   13  O   UNL     1       2.283 -20.160   9.293  1.00  0.00    -0.294 OA
BRANCH  10  14
HETATM   14  O   UNL     1       1.344 -17.613  10.983  1.00  0.00    -0.280 OA
HETATM   15  H   UNL     1       0.608 -17.863  11.593  1.00  0.00     0.245 HD
ENDBRANCH  10  14
BRANCH  12  16
HETATM   16  O   UNL     1       4.129 -18.223   8.939  1.00  0.00    -0.364 OA
HETATM   17  H   UNL     1       4.678 -18.248   9.707  1.00  0.00     0.213 HD
ENDBRANCH  12  16
ENDBRANCH   1  10
TORSDOF 8
ENDMDL
MODEL 3
REMARK VINA RESULT:    -4.892      2.876      5.206
REMARK INTER + INTRA:          -7.284
REMARK INTER:                  -6.787
REMARK INTRA:                  -0.497
REMARK UNBOUND:                -0.532
REMARK  8 active torsions:
REMARK  status: ('A' for Active; 'I' for Inactive)
REMARK    1  A    between atoms: O_1  and  O_4 
REMARK    2  A    between atoms: O_4  and  C_7 
REMARK    3  A    between atoms: C_5  and  C_8 
REMARK    4  A    between atoms: C_5  and  C_7 
REMARK    5  A    between atoms: O_6  and  C_7 
REMARK    6  A    between atoms: C_8  and  N_11 
REMARK    7  A    between atoms: O_10  and  N_11 
REMARK    8  A    between atoms: C_12  and  O_15 
ROOT
HETATM    1  C   UNL     1       8.504  16.173   2.395  1.00  0.00     0.093 C 
HETATM    2 BR   UNL     1       8.889  17.538   3.698  1.00  0.00    -0.033 Br
ENDROOT
BRANCH   1   3
HETATM    3  C   UNL     1       8.378  14.698   2.760  1.00  0.00     0.131 C 
BRANCH   3   4
HETATM    4  C   UNL     1       9.669  14.153   3.443  1.00  0.00     0.299 C 
BRANCH   4   5
HETATM    5  O   UNL     1       9.380  12.790   3.533  1.00  0.00    -0.208 OA
BRANCH   5   6
HETATM    6  O   UNL     1       8.640  11.926   4.214  1.00  0.00    -0.243 OA
HETATM    7  C   UNL     1       7.529  11.245   3.726  1.00  0.00     0.247 C 
ENDBRANCH   5   6
ENDBRANCH   4   5
BRANCH   4   8
HETATM    8  O   UNL     1      10.823  14.617   2.723  1.00  0.00    -0.368 OA
HETATM    9  H   UNL     1      10.081  14.897   2.054  1.00  0.00     0.212 HD
ENDBRANCH   4   8
ENDBRANCH   3   4
ENDBRANCH   1   3
BRANCH   1  10
HETATM   10  N   UNL     1       8.661  16.814   1.285  1.00  0.00    -0.198 N 
HETATM   11  C   UNL     1       8.215  17.983   0.740  1.00  0.00     0.205 A 
HETATM   12  C   UNL     1       8.481  19.033  -0.284  1.00  0.00     0.343 A 
HETATM   13  O   UNL     1       7.316  18.480   0.173  1.00  0.00    -0.294 OA
BRANCH  10  14
HETATM   14  O   UNL     1       9.640  16.299   0.441  1.00  0.00    -0.280 OA
HETATM   15  H   UNL     1       9.231  15.414   0.290  1.00  0.00     0.245 HD
ENDBRANCH  10  14
BRANCH  12  16
HETATM   16  O   UNL     1       9.675  19.785   0.046  1.00  0.00    -0.364 OA
HETATM   17  H   UNL     1      10.117  18.979   0.259  1.00  0.00     0.213 HD
ENDBRANCH  12  16
ENDBRANCH   1  10
TORSDOF 8
ENDMDL
MODEL 4
REMARK VINA RESULT:    -4.774      1.292      2.149
REMARK INTER + INTRA:          -7.120
REMARK INTER:                  -6.666
REMARK INTRA:                  -0.453
REMARK UNBOUND:                -0.532
REMARK  8 active torsions:
REMARK  status: ('A' for Active; 'I' for Inactive)
REMARK    1  A    between atoms: O_1  and  O_4 
REMARK    2  A    between atoms: O_4  and  C_7 
REMARK    3  A    between atoms: C_5  and  C_8 
REMARK    4  A    between atoms: C_5  and  C_7 
REMARK    5  A    between atoms: O_6  and  C_7 
REMARK    6  A    between atoms: C_8  and  N_11 
REMARK    7  A    between atoms: O_10  and  N_11 
REMARK    8  A    between atoms: C_12  and  O_15 
ROOT
HETATM    1  C   UNL     1       7.694  14.163   2.993  1.00  0.00     0.093 C 
HETATM    2 BR   UNL     1       7.040  14.227   4.804  1.00  0.00    -0.033 Br
ENDROOT
BRANCH   1   3
HETATM    3  C   UNL     1       7.987  15.417   2.179  1.00  0.00     0.131 C 
BRANCH   3   4
HETATM    4  C   UNL     1       9.422  15.397   1.570  1.00  0.00     0.299 C 
BRANCH   4   5
HETATM    5  O   UNL     1       9.607  16.744   1.250  1.00  0.00    -0.208 OA
BRANCH   5   6
HETATM    6  O   UNL     1       8.973  17.908   1.244  1.00  0.00    -0.243 OA
HETATM    7  C   UNL     1       8.489  18.565   0.117  1.00  0.00     0.247 C 
ENDBRANCH   5   6
ENDBRANCH   4   5
BRANCH   4   8
HETATM    8  O   UNL     1      10.315  14.724   2.473  1.00  0.00    -0.368 OA
HETATM    9  H   UNL     1      10.949  15.470   2.129  1.00  0.00     0.212 HD
ENDBRANCH   4   8
ENDBRANCH   3   4
ENDBRANCH   1   3
BRANCH   1  10
HETATM   10  N   UNL     1       7.532  12.916   2.698  1.00  0.00    -0.198 N 
HETATM   11  C   UNL     1       6.613  12.165   2.022  1.00  0.00     0.205 A 
HETATM   12  C   UNL     1       6.376  10.882   1.303  1.00  0.00     0.343 A 
HETATM   13  O   UNL     1       5.573  11.631   2.119  1.00  0.00    -0.294 OA
BRANCH  10  14
HETATM   14  O   UNL     1       8.614  12.093   2.996  1.00  0.00    -0.280 OA
HETATM   15  H   UNL     1       9.317  12.785   2.967  1.00  0.00     0.245 HD
ENDBRANCH  10  14
BRANCH  12  16
HETATM   16  O   UNL     1       7.141  10.829   0.074  1.00  0.00    -0.364 OA
HETATM   17  H   UNL     1       7.618  10.086   0.409  1.00  0.00     0.213 HD
ENDBRANCH  12  16
ENDBRANCH   1  10
TORSDOF 8
ENDMDL
MODEL 5
REMARK VINA RESULT:    -4.683      1.886      2.568
REMARK INTER + INTRA:          -6.995
REMARK INTER:                  -6.656
REMARK INTRA:                  -0.339
REMARK UNBOUND:                -0.532
REMARK  8 active torsions:
REMARK  status: ('A' for Active; 'I' for Inactive)
REMARK    1  A    between atoms: O_1  and  O_4 
REMARK    2  A    between atoms: O_4  and  C_7 
REMARK    3  A    between atoms: C_5  and  C_8 
REMARK    4  A    between atoms: C_5  and  C_7 
REMARK    5  A    between atoms: O_6  and  C_7 
REMARK    6  A    between atoms: C_8  and  N_11 
REMARK    7  A    between atoms: O_10  and  N_11 
REMARK    8  A    between atoms: C_12  and  O_15 
ROOT
HETATM    1  C   UNL     1       8.439  14.573   3.394  1.00  0.00     0.093 C 
HETATM    2 BR   UNL     1       8.137  15.620   1.806  1.00  0.00    -0.033 Br
ENDROOT
BRANCH   1   3
HETATM    3  C   UNL     1       9.305  15.060   4.549  1.00  0.00     0.131 C 
BRANCH   3   4
HETATM    4  C   UNL     1      10.826  14.902   4.247  1.00  0.00     0.299 C 
BRANCH   4   5
HETATM    5  O   UNL     1      11.183  16.213   3.924  1.00  0.00    -0.208 OA
BRANCH   5   6
HETATM    6  O   UNL     1      10.879  17.473   4.204  1.00  0.00    -0.243 OA
HETATM    7  C   UNL     1      11.359  18.206   5.284  1.00  0.00     0.247 C 
ENDBRANCH   5   6
ENDBRANCH   4   5
BRANCH   4   8
HETATM    8  O   UNL     1      11.461  14.211   5.335  1.00  0.00    -0.368 OA
HETATM    9  H   UNL     1      10.552  14.436   5.782  1.00  0.00     0.212 HD
ENDBRANCH   4   8
ENDBRANCH   3   4
ENDBRANCH   1   3
BRANCH   1  10
HETATM   10  N   UNL     1       7.972  13.421   3.044  1.00  0.00    -0.198 N 
HETATM   11  C   UNL     1       6.900  12.954   2.338  1.00  0.00     0.205 A 
HETATM   12  C   UNL     1       6.356  11.804   1.563  1.00  0.00     0.343 A 
HETATM   13  O   UNL     1       5.759  12.695   2.413  1.00  0.00    -0.294 OA
BRANCH  10  14
HETATM   14  O   UNL     1       8.810  12.341   3.304  1.00  0.00    -0.280 OA
HETATM   15  H   UNL     1       9.391  12.783   3.969  1.00  0.00     0.245 HD
ENDBRANCH  10  14
BRANCH  12  16
HETATM   16  O   UNL     1       7.094  11.614   0.331  1.00  0.00    -0.364 OA
HETATM   17  H   UNL     1       6.491  10.932   0.081  1.00  0.00     0.213 HD
ENDBRANCH  12  16
ENDBRANCH   1  10
TORSDOF 8
ENDMDL
MODEL 6
REMARK VINA RESULT:    -4.667      3.064      5.973
REMARK INTER + INTRA:          -6.972
REMARK INTER:                  -6.680
REMARK INTRA:                  -0.293
REMARK UNBOUND:                -0.532
REMARK  8 active torsions:
REMARK  status: ('A' for Active; 'I' for Inactive)
REMARK    1  A    between atoms: O_1  and  O_4 
REMARK    2  A    between atoms: O_4  and  C_7 
REMARK    3  A    between atoms: C_5  and  C_8 
REMARK    4  A    between atoms: C_5  and  C_7 
REMARK    5  A    between atoms: O_6  and  C_7 
REMARK    6  A    between atoms: C_8  and  N_11 
REMARK    7  A    between atoms: O_10  and  N_11 
REMARK    8  A    between atoms: C_12  and  O_15 
ROOT
HETATM    1  C   UNL     1       8.856  16.974   3.501  1.00  0.00     0.093 C 
HETATM    2 BR   UNL     1       7.419  17.974   4.306  1.00  0.00    -0.033 Br
ENDROOT
BRANCH   1   3
HETATM    3  C   UNL     1       8.744  15.490   3.173  1.00  0.00     0.131 C 
BRANCH   3   4
HETATM    4  C   UNL     1       9.954  14.677   3.725  1.00  0.00     0.299 C 
BRANCH   4   5
HETATM    5  O   UNL     1       9.317  13.543   4.234  1.00  0.00    -0.208 OA
BRANCH   5   6
HETATM    6  O   UNL     1       9.068  12.273   3.948  1.00  0.00    -0.243 OA
HETATM    7  C   UNL     1       7.846  11.759   3.525  1.00  0.00     0.247 C 
ENDBRANCH   5   6
ENDBRANCH   4   5
BRANCH   4   8
HETATM    8  O   UNL     1      10.958  14.563   2.704  1.00  0.00    -0.368 OA
HETATM    9  H   UNL     1      10.282  13.856   2.357  1.00  0.00     0.212 HD
ENDBRANCH   4   8
ENDBRANCH   3   4
ENDBRANCH   1   3
BRANCH   1  10
HETATM   10  N   UNL     1       9.844  17.800   3.606  1.00  0.00    -0.198 N 
HETATM   11  C   UNL     1      10.778  18.118   4.549  1.00  0.00     0.205 A 
HETATM   12  C   UNL     1      12.117  18.729   4.784  1.00  0.00     0.343 A 
HETATM   13  O   UNL     1      10.964  18.748   5.521  1.00  0.00    -0.294 OA
BRANCH  10  14
HETATM   14  O   UNL     1      10.181  18.468   2.433  1.00  0.00    -0.280 OA
HETATM   15  H   UNL     1      10.869  19.065   2.815  1.00  0.00     0.245 HD
ENDBRANCH  10  14
BRANCH  12  16
HETATM   16  O   UNL     1      13.165  17.920   4.195  1.00  0.00    -0.364 OA
HETATM   17  H   UNL     1      12.632  17.801   3.425  1.00  0.00     0.213 HD
ENDBRANCH  12  16
ENDBRANCH   1  10
TORSDOF 8
ENDMDL
MODEL 7
REMARK VINA RESULT:    -4.639     22.066     23.070
REMARK INTER + INTRA:          -6.935
REMARK INTER:                  -6.463
REMARK INTRA:                  -0.471
REMARK UNBOUND:                -0.532
REMARK  8 active torsions:
REMARK  status: ('A' for Active; 'I' for Inactive)
REMARK    1  A    between atoms: O_1  and  O_4 
REMARK    2  A    between atoms: O_4  and  C_7 
REMARK    3  A    between atoms: C_5  and  C_8 
REMARK    4  A    between atoms: C_5  and  C_7 
REMARK    5  A    between atoms: O_6  and  C_7 
REMARK    6  A    between atoms: C_8  and  N_11 
REMARK    7  A    between atoms: O_10  and  N_11 
REMARK    8  A    between atoms: C_12  and  O_15 
ROOT
HETATM    1  C   UNL     1       7.842  -0.173  21.519  1.00  0.00     0.093 C 
HETATM    2 BR   UNL     1       7.091  -1.803  22.216  1.00  0.00    -0.033 Br
ENDROOT
BRANCH   1   3
HETATM    3  C   UNL     1       8.411   0.921  22.414  1.00  0.00     0.131 C 
BRANCH   3   4
HETATM    4  C   UNL     1       9.955   1.062  22.256  1.00  0.00     0.299 C 
BRANCH   4   5
HETATM    5  O   UNL     1      10.317  -0.238  21.898  1.00  0.00    -0.208 OA
BRANCH   5   6
HETATM    6  O   UNL     1      11.137  -1.222  22.241  1.00  0.00    -0.243 OA
HETATM    7  C   UNL     1      12.005  -1.216  23.327  1.00  0.00     0.247 C 
ENDBRANCH   5   6
ENDBRANCH   4   5
BRANCH   4   8
HETATM    8  O   UNL     1      10.248   2.174  21.395  1.00  0.00    -0.368 OA
HETATM    9  H   UNL     1      10.821   2.440  22.218  1.00  0.00     0.212 HD
ENDBRANCH   4   8
ENDBRANCH   3   4
ENDBRANCH   1   3
BRANCH   1  10
HETATM   10  N   UNL     1       7.476  -0.222  20.280  1.00  0.00    -0.198 N 
HETATM   11  C   UNL     1       6.298  -0.260  19.592  1.00  0.00     0.205 A 
HETATM   12  C   UNL     1       5.642   0.000  18.280  1.00  0.00     0.343 A 
HETATM   13  O   UNL     1       5.443  -0.972  19.222  1.00  0.00    -0.294 OA
BRANCH  10  14
HETATM   14  O   UNL     1       8.502  -0.052  19.356  1.00  0.00    -0.280 OA
HETATM   15  H   UNL     1       7.939   0.146  18.570  1.00  0.00     0.245 HD
ENDBRANCH  10  14
BRANCH  12  16
HETATM   16  O   UNL     1       5.629   1.418  17.981  1.00  0.00    -0.364 OA
HETATM   17  H   UNL     1       5.986   1.596  18.837  1.00  0.00     0.213 HD
ENDBRANCH  12  16
ENDBRANCH   1  10
TORSDOF 8
ENDMDL
MODEL 8
REMARK VINA RESULT:    -4.522     22.527     23.510
REMARK INTER + INTRA:          -6.773
REMARK INTER:                  -6.479
REMARK INTRA:                  -0.294
REMARK UNBOUND:                -0.532
REMARK  8 active torsions:
REMARK  status: ('A' for Active; 'I' for Inactive)
REMARK    1  A    between atoms: O_1  and  O_4 
REMARK    2  A    between atoms: O_4  and  C_7 
REMARK    3  A    between atoms: C_5  and  C_8 
REMARK    4  A    between atoms: C_5  and  C_7 
REMARK    5  A    between atoms: O_6  and  C_7 
REMARK    6  A    between atoms: C_8  and  N_11 
REMARK    7  A    between atoms: O_10  and  N_11 
REMARK    8  A    between atoms: C_12  and  O_15 
ROOT
HETATM    1  C   UNL     1       8.606  -0.690  21.512  1.00  0.00     0.093 C 
HETATM    2 BR   UNL     1       7.824  -2.094  22.575  1.00  0.00    -0.033 Br
ENDROOT
BRANCH   1   3
HETATM    3  C   UNL     1      10.004  -0.142  21.773  1.00  0.00     0.131 C 
BRANCH   3   4
HETATM    4  C   UNL     1       9.965   1.290  22.388  1.00  0.00     0.299 C 
BRANCH   4   5
HETATM    5  O   UNL     1      10.694   1.107  23.565  1.00  0.00    -0.208 OA
BRANCH   5   6
HETATM    6  O   UNL     1      10.536   0.861  24.858  1.00  0.00    -0.243 OA
HETATM    7  C   UNL     1       9.750  -0.147  25.405  1.00  0.00     0.247 C 
ENDBRANCH   5   6
ENDBRANCH   4   5
BRANCH   4   8
HETATM    8  O   UNL     1      10.386   2.246  21.401  1.00  0.00    -0.368 OA
HETATM    9  H   UNL     1       9.377   2.191  21.166  1.00  0.00     0.212 HD
ENDBRANCH   4   8
ENDBRANCH   3   4
ENDBRANCH   1   3
BRANCH   1  10
HETATM   10  N   UNL     1       7.589  -0.274  20.834  1.00  0.00    -0.198 N 
HETATM   11  C   UNL     1       7.300  -0.031  19.522  1.00  0.00     0.205 A 
HETATM   12  C   UNL     1       6.208   0.112  18.519  1.00  0.00     0.343 A 
HETATM   13  O   UNL     1       7.405   0.759  18.662  1.00  0.00    -0.294 OA
BRANCH  10  14
HETATM   14  O   UNL     1       6.405  -0.161  21.556  1.00  0.00    -0.280 OA
HETATM   15  H   UNL     1       6.749   0.409  22.285  1.00  0.00     0.245 HD
ENDBRANCH  10  14
BRANCH  12  16
HETATM   16  O   UNL     1       5.533  -1.152  18.306  1.00  0.00    -0.364 OA
HETATM   17  H   UNL     1       5.128  -0.798  17.529  1.00  0.00     0.213 HD
ENDBRANCH  12  16
ENDBRANCH   1  10
TORSDOF 8
ENDMDL
MODEL 9
REMARK VINA RESULT:    -4.406      2.114      2.410
REMARK INTER + INTRA:          -6.612
REMARK INTER:                  -6.067
REMARK INTRA:                  -0.545
REMARK UNBOUND:                -0.532
REMARK  8 active torsions:
REMARK  status: ('A' for Active; 'I' for Inactive)
REMARK    1  A    between atoms: O_1  and  O_4 
REMARK    2  A    between atoms: O_4  and  C_7 
REMARK    3  A    between atoms: C_5  and  C_8 
REMARK    4  A    between atoms: C_5  and  C_7 
REMARK    5  A    between atoms: O_6  and  C_7 
REMARK    6  A    between atoms: C_8  and  N_11 
REMARK    7  A    between atoms: O_10  and  N_11 
REMARK    8  A    between atoms: C_12  and  O_15 
ROOT
HETATM    1  C   UNL     1       8.377  15.291   3.402  1.00  0.00     0.093 C 
HETATM    2 BR   UNL     1       8.594  15.866   5.228  1.00  0.00    -0.033 Br
ENDROOT
BRANCH   1   3
HETATM    3  C   UNL     1       7.809  16.197   2.316  1.00  0.00     0.131 C 
BRANCH   3   4
HETATM    4  C   UNL     1       8.877  16.560   1.240  1.00  0.00     0.299 C 
BRANCH   4   5
HETATM    5  O   UNL     1       9.759  17.351   1.980  1.00  0.00    -0.208 OA
BRANCH   5   6
HETATM    6  O   UNL     1      10.149  18.608   2.136  1.00  0.00    -0.243 OA
HETATM    7  C   UNL     1      10.082  19.341   3.316  1.00  0.00     0.247 C 
ENDBRANCH   5   6
ENDBRANCH   4   5
BRANCH   4   8
HETATM    8  O   UNL     1       9.329  15.361   0.591  1.00  0.00    -0.368 OA
HETATM    9  H   UNL     1       8.371  15.418   0.197  1.00  0.00     0.212 HD
ENDBRANCH   4   8
ENDBRANCH   3   4
ENDBRANCH   1   3
BRANCH   1  10
HETATM   10  N   UNL     1       8.571  14.018   3.500  1.00  0.00    -0.198 N 
HETATM   11  C   UNL     1       7.825  12.919   3.815  1.00  0.00     0.205 A 
HETATM   12  C   UNL     1       7.717  11.439   3.686  1.00  0.00     0.343 A 
HETATM   13  O   UNL     1       7.399  12.290   4.709  1.00  0.00    -0.294 OA
BRANCH  10  14
HETATM   14  O   UNL     1       9.808  13.573   3.042  1.00  0.00    -0.280 OA
HETATM   15  H   UNL     1      10.005  12.949   3.780  1.00  0.00     0.245 HD
ENDBRANCH  10  14
BRANCH  12  16
HETATM   16  O   UNL     1       7.476  11.056   2.309  1.00  0.00    -0.364 OA
HETATM   17  H   UNL     1       7.954  10.255   2.455  1.00  0.00     0.213 HD
ENDBRANCH  12  16
ENDBRANCH   1  10
TORSDOF 8
ENDMDL
