stable:False satoms:16 tatoms:24 sratio:0.6666666666666666
  -OEChem-07092417393D

 24 22  0     1  0  0  0  0  0999 V2000
    6.3950   -4.6713   26.5409 Cl  0  0  0  0  0  0  0  0  0  0  0  0
    8.2463   -4.2695   26.0800 S   0  0  0  0  0  0  0  0  0  0  0  0
    8.8538   -5.4858   25.8362 O   0  0  0  0  0  0  0  0  0  0  0  0
    8.7970   -3.5196   27.1127 O   0  0  0  0  0  0  0  0  0  0  0  0
    8.0103   -3.4828   24.7200 N   0  0  0  0  0  0  0  0  0  0  0  0
    8.7509   -2.8323   24.2811 C   0  0  0  0  0  0  0  0  0  0  0  0
    9.2853   -2.0104   23.8533 C   0  0  0  0  0  0  0  0  0  0  0  0
   10.0967   -0.9807   23.5769 C   0  5  1  0  0  0  0  0  0  0  0  0
   10.6819   -0.5436   24.4252 H   0  0  0  0  0  0  0  0  0  0  0  0
   12.2063    0.3826   23.4351 H   0  0  0  0  0  0  0  0  0  0  0  0
   13.6445   -0.6041   23.5832 H   0  0  0  0  0  0  0  0  0  0  0  0
   12.7126   -0.5203   23.1804 C   0  5  0  0  0  0  0  0  0  0  0  0
   12.2966   -1.2385   22.5538 H   0  0  0  0  0  0  0  0  0  0  0  0
    9.7281   -0.5974   22.5125 C   0  0  0  0  0  0  0  0  0  0  0  0
    9.0912   -0.0111   21.4079 C   0  0  0  0  0  0  0  0  0  0  0  0
    9.5905    0.8025   20.6948 O   0  0  0  0  0  0  0  0  0  0  0  0
    7.8125   -0.4950   21.2334 N   0  0  0  0  0  0  0  0  0  0  0  0
    7.0636   -0.0682   20.2622 C   0  0  0  0  0  0  0  0  0  0  0  0
    7.3071   -0.1969   18.9421 N   0  0  0  0  0  0  0  0  0  0  0  0
    6.6571    0.3539   18.1238 N   0  0  0  0  0  0  0  0  0  0  0  0
    6.0430    0.6817   17.4961 H   0  0  0  0  0  0  0  0  0  0  0  0
    5.1969    0.9227   19.5004 N   0  3  0  0  0  0  0  0  0  0  0  0
    5.7667    0.5186   20.4695 C   0  3  0  0  0  0  0  0  0  0  0  0
    5.3502    0.5753   21.4751 H   0  0  0  0  0  0  0  0  0  0  0  0
 20 21  1  0  0  0  0
 19 20  2  3  0  0  0
 18 19  1  0  0  0  0
 22 23  1  0  0  0  0
 18 23  1  0  0  0  0
 17 18  2  3  0  0  0
 23 24  1  0  0  0  0
 15 16  2  0  0  0  0
 15 17  1  0  0  0  0
 14 15  1  0  0  0  0
  8 14  1  0  0  0  0
 12 13  1  0  0  0  0
 10 12  1  0  0  0  0
 11 12  1  0  0  0  0
  7  8  1  0  0  0  0
  8  9  1  0  0  0  0
  6  7  3  0  0  0  0
  5  6  1  0  0  0  0
  2  5  1  0  0  0  0
  2  3  2  0  0  0  0
  1  2  1  0  0  0  0
  2  4  2  0  0  0  0
M  CHG  4   8  -1  12  -1  22   1  23   1
M  END
> <Shapegauss>
-209.364349

$$$$
