stable:False satoms:9 tatoms:24 sratio:0.375
  -OEChem-07092417453D

 24 25  0     1  0  0  0  0  0999 V2000
    6.5060   -4.8450   26.4161 C   0  0  0  0  0  0  0  0  0  0  0  0
    8.2333   -4.2918   26.0824 S   0  0  0  0  0  0  0  0  0  0  0  0
    9.0294   -5.4932   26.0499 O   0  0  0  0  0  0  0  0  0  0  0  0
    8.6155   -3.4181   27.1418 O   0  0  0  0  0  0  0  0  0  0  0  0
    8.1602   -3.5278   24.6774 N   0  0  0  0  0  0  0  0  0  0  0  0
    8.9610   -2.8845   24.1551 C   0  0  0  0  0  0  0  0  0  0  0  0
    9.4513   -2.0033   23.5300 C   0  0  0  0  0  0  0  0  0  0  0  0
   10.3404   -1.1233   23.2264 C   0  0  1  0  0  0  0  0  0  0  0  0
   11.0218   -0.0562   24.3202 C   0  0  0  0  0  0  0  0  0  0  0  0
   12.1413    0.2126   24.1830 C   0  0  0  0  0  0  0  0  0  0  0  0
   13.1007   -0.0616   23.5171 C   0  0  0  0  0  0  0  0  0  0  0  0
   12.7506   -1.2539   22.6022 C   0  0  0  0  0  0  0  0  0  0  0  0
   11.8691   -1.6853   22.5111 C   0  0  0  0  0  0  0  0  0  0  0  0
    9.6899   -0.6175   22.3659 C   0  0  0  0  0  0  0  0  0  0  0  0
    9.0617    0.0449   21.3594 C   0  0  0  0  0  0  0  0  0  0  0  0
    9.5472    1.0064   20.9259 O   0  0  0  0  0  0  0  0  0  0  0  0
    7.9452   -0.5807   21.0717 N   0  0  0  0  0  0  0  0  0  0  0  0
    7.1716   -0.0942   20.1993 C   0  0  0  0  0  0  0  0  0  0  0  0
    7.1683    0.0028   18.8839 C   0  0  0  0  0  0  0  0  0  0  0  0
    6.7700    0.3218   17.8018 N   0  0  0  0  0  0  0  0  0  0  0  0
    5.6437    0.8851   18.2603 C   0  0  0  0  0  0  0  0  0  0  0  0
    5.2493    0.9467   19.4323 C   0  0  0  0  0  0  0  0  0  0  0  0
    5.8301    0.5575   20.5814 C   0  0  0  0  0  0  0  0  0  0  0  0
    5.3266    0.6683   22.0020 Cl  0  0  0  0  0  0  0  0  0  0  0  0
 20 21  2  0  0  0  0
 19 20  1  0  0  0  0
 21 22  1  0  0  0  0
 18 19  2  0  0  0  0
 22 23  2  0  0  0  0
 18 23  1  0  0  0  0
 17 18  1  0  0  0  0
 23 24  1  0  0  0  0
 15 16  2  0  0  0  0
 15 17  1  0  0  0  0
 14 15  1  0  0  0  0
  8 14  1  0  0  0  0
 12 13  1  0  0  0  0
  8 13  1  0  0  0  0
 11 12  2  0  0  0  0
  7  8  1  0  0  0  0
  8  9  1  0  0  0  0
 10 11  1  0  0  0  0
  6  7  3  0  0  0  0
  5  6  1  0  0  0  0
  9 10  2  0  0  0  0
  2  5  1  0  0  0  0
  2  3  2  0  0  0  0
  1  2  1  0  0  0  0
  2  4  2  0  0  0  0
M  END
> <Shapegauss>
-286.010254

$$$$
