REMARK  7 active torsions:
REMARK  status: ('A' for Active; 'I' for Inactive)
REMARK    1  A    between atoms: S_2  and  N_5 
REMARK    2  A    between atoms: N_5  and  C_7 
REMARK    3  A    between atoms: C_7  and  C_8 
REMARK    4  A    between atoms: C_8  and  C_9 
REMARK    5  A    between atoms: C_9  and  C_15 
REMARK    6  A    between atoms: C_15  and  C_16 
REMARK       I    between atoms: C_16  and  N_18 
REMARK    7  A    between atoms: N_18  and  C_20 
ROOT
HETATM    1  C   UNL     1      10.340  -1.123  23.226  1.00  0.00     0.067 C 
HETATM    2  C   UNL     1      11.022  -0.056  24.320  1.00  0.00    -0.004 C 
HETATM    3  C   UNL     1      12.141   0.213  24.183  1.00  0.00    -0.025 C 
HETATM    4  C   UNL     1      13.101  -0.062  23.517  1.00  0.00     0.053 C 
HETATM    5  C   UNL     1      12.751  -1.254  22.602  1.00  0.00    -0.025 C 
HETATM    6  C   UNL     1      11.869  -1.685  22.511  1.00  0.00    -0.004 C 
ENDROOT
BRANCH   1   7
HETATM    7  C   UNL     1       9.451  -2.003  23.530  1.00  0.00     0.135 C 
BRANCH   7   8
HETATM    8  C   UNL     1       8.961  -2.885  24.155  1.00  0.00    -0.058 C 
BRANCH   8   9
HETATM    9  N   UNL     1       8.160  -3.528  24.677  1.00  0.00    -0.254 N 
ATOM     10  HN  UNL     1       7.279  -3.624  24.172  1.00  0.00     0.188 HD
BRANCH   9  11
HETATM   11  S   UNL     1       8.233  -4.292  26.082  1.00  0.00     0.233 S 
HETATM   12  C   UNL     1       6.506  -4.845  26.416  1.00  0.00     0.186 C 
HETATM   13  O   UNL     1       9.029  -5.493  26.050  1.00  0.00    -0.206 OA
HETATM   14  O   UNL     1       8.616  -3.418  27.142  1.00  0.00    -0.206 OA
ENDBRANCH   9  11
ENDBRANCH   8   9
ENDBRANCH   7   8
ENDBRANCH   1   7
BRANCH   1  15
HETATM   15  C   UNL     1       9.690  -0.618  22.366  1.00  0.00    -0.064 C 
BRANCH  15  16
HETATM   16  C   UNL     1       9.062   0.045  21.359  1.00  0.00     0.290 C 
HETATM   17  O   UNL     1       9.547   1.006  20.926  1.00  0.00    -0.259 OA
HETATM   18  N   UNL     1       7.945  -0.581  21.072  1.00  0.00    -0.314 N 
ATOM     19  HN  UNL     1       7.704  -1.450  21.548  1.00  0.00     0.170 HD
BRANCH  18  20
HETATM   20  C   UNL     1       7.172  -0.094  20.199  1.00  0.00     0.072 A 
HETATM   21  C   UNL     1       7.168   0.003  18.884  1.00  0.00     0.119 A 
HETATM   22  N   UNL     1       6.770   0.322  17.802  1.00  0.00    -0.373 N 
HETATM   23  C   UNL     1       5.644   0.885  18.260  1.00  0.00     0.089 A 
ATOM     24  HN  UNL     1       7.152   0.206  16.863  1.00  0.00     0.164 HD
HETATM   25  C   UNL     1       5.249   0.947  19.432  1.00  0.00     0.043 A 
HETATM   26  C   UNL     1       5.830   0.557  20.581  1.00  0.00     0.063 A 
HETATM   27 CL   UNL     1       5.327   0.668  22.002  1.00  0.00    -0.082 Cl
ENDBRANCH  18  20
ENDBRANCH  15  16
ENDBRANCH   1  15
TORSDOF 7
