stable:False satoms:19 tatoms:24 sratio:0.7916666666666666
  -OEChem-07092417293D

 24 25  0     1  0  0  0  0  0999 V2000
    7.2474   -0.2674   23.2800 C   0  0  0  0  0  0  0  0  0  0  0  0
    9.2930   -2.5127   21.5781 C   0  0  0  0  0  0  0  0  0  0  0  0
    7.4991   -0.6241   24.2574 H   0  0  0  0  0  0  0  0  0  0  0  0
   12.6718   -2.3285   22.7771 H   0  0  0  0  0  0  0  0  0  0  0  0
    6.1624    0.5166   23.0602 C   0  0  0  0  0  0  0  0  0  0  0  0
   10.9151   -2.9053   24.8277 C   0  3  0  0  0  0  0  0  0  0  0  0
   11.8321   -2.8382   25.3494 H   0  0  0  0  0  0  0  0  0  0  0  0
   10.7979   -2.3660   23.6407 N   0  3  3  0  0  0  0  0  0  0  0  0
    4.9327    1.4682   21.6048 H   0  0  0  0  0  0  0  0  0  0  0  0
    5.5180    0.8087   23.8740 H   0  0  0  0  0  0  0  0  0  0  0  0
   11.7434   -1.7982   22.9084 C   0  3  0  0  0  0  0  0  0  0  0  0
    6.6652    0.6003   20.7069 C   0  0  0  0  0  0  0  0  0  0  0  0
   10.1874   -2.8729   21.0714 H   0  0  0  0  0  0  0  0  0  0  0  0
    6.4046    0.9114   19.7110 H   0  0  0  0  0  0  0  0  0  0  0  0
   11.6341   -0.2345   22.3316 Cl  0  0  0  0  0  0  0  0  0  0  0  0
    8.5194   -0.3088   20.1094 H   0  0  0  0  0  0  0  0  0  0  0  0
    8.6974   -2.8840   23.7177 H   0  0  0  0  0  0  0  0  0  0  0  0
    7.8228   -0.1125   20.9113 C   0  0  0  0  0  0  0  0  0  0  0  0
   10.0936   -3.3811   25.3067 H   0  0  0  0  0  0  0  0  0  0  0  0
    9.3909   -2.3929   23.0334 C   0  0  1  0  0  0  0  0  0  0  0  0
    9.2037   -1.3110   22.3193 N   0  0  2  0  0  0  0  0  0  0  0  0
    8.0753   -0.5961   22.1877 C   0  0  0  0  0  0  0  0  0  0  0  0
    5.8400    0.9160   21.7665 C   0  0  0  0  0  0  0  0  0  0  0  0
    8.4369   -2.7772   20.9658 H   0  0  0  0  0  0  0  0  0  0  0  0
 12 14  1  0  0  0  0
 16 18  1  0  0  0  0
 12 18  2  0  0  0  0
 12 23  1  0  0  0  0
 18 22  1  0  0  0  0
  2 24  1  0  0  0  0
  2 13  1  0  0  0  0
  2 21  1  0  0  0  0
  2 20  1  0  0  0  0
  9 23  1  0  0  0  0
  5 23  2  0  0  0  0
 21 22  1  0  0  0  0
  1 22  2  0  0  0  0
 20 21  1  0  0  0  0
 11 15  1  0  0  0  0
  4 11  1  0  0  0  0
  8 11  1  0  0  0  0
  8 20  1  0  0  0  0
 17 20  1  0  0  0  0
  1  5  1  0  0  0  0
  5 10  1  0  0  0  0
  1  3  1  0  0  0  0
  6  8  1  0  0  0  0
  6 19  1  0  0  0  0
  6  7  1  0  0  0  0
M  CHG  3   6   1   8   1  11   1
M  END
> <Shapegauss>
-103.796280

$$$$
