MODEL 1
REMARK VINA RESULT:    -4.909      0.000      0.000
REMARK INTER + INTRA:          -5.353
REMARK INTER:                  -5.770
REMARK INTRA:                   0.417
REMARK UNBOUND:                 0.417
REMARK  3 active torsions:
REMARK  status: ('A' for Active; 'I' for Inactive)
REMARK    1  A    between atoms: N_5  and  C_6 
REMARK    2  A    between atoms: N_5  and  C_10 
REMARK    3  A    between atoms: N_11  and  C_12 
ROOT
HETATM    1  C   UNL     1       8.683  -1.949  22.026  1.00  0.00     0.139 A 
HETATM    2  C   UNL     1       8.224  -2.491  23.305  1.00  0.00     0.181 A 
HETATM    3  N   UNL     1       9.511  -2.386  23.086  1.00  0.00    -0.257 NA
ENDROOT
BRANCH   3   4
HETATM    4  C   UNL     1      10.364  -1.487  23.604  1.00  0.00     0.012 A 
HETATM    5  C   UNL     1       9.980  -0.537  24.571  1.00  0.00     0.024 A 
HETATM    6  C   UNL     1      10.927   0.287  25.086  1.00  0.00     0.002 A 
HETATM    7  C   UNL     1      12.231   0.238  24.603  1.00  0.00     0.000 A 
HETATM    8  C   UNL     1      12.599  -0.705  23.666  1.00  0.00     0.002 A 
HETATM    9  C   UNL     1      11.684  -1.616  23.194  1.00  0.00     0.024 A 
ENDBRANCH   3   4
BRANCH   2  10
HETATM   10  N   UNL     1       7.832  -3.972  23.339  1.00  0.00    -0.348 N 
HETATM   11  C   UNL     1       8.309  -4.664  24.343  1.00  0.00     0.123 C 
BRANCH  10  12
HETATM   12  C   UNL     1       7.060  -4.397  22.351  1.00  0.00     0.176 C 
HETATM   13 CL   UNL     1       7.101  -5.962  21.770  1.00  0.00    -0.078 Cl
ENDBRANCH  10  12
ENDBRANCH   2  10
TORSDOF 3
ENDMDL
MODEL 2
REMARK VINA RESULT:    -4.793      4.528      5.696
REMARK INTER + INTRA:          -5.216
REMARK INTER:                  -5.408
REMARK INTRA:                   0.192
REMARK UNBOUND:                 0.417
REMARK  3 active torsions:
REMARK  status: ('A' for Active; 'I' for Inactive)
REMARK    1  A    between atoms: N_5  and  C_6 
REMARK    2  A    between atoms: N_5  and  C_10 
REMARK    3  A    between atoms: N_11  and  C_12 
ROOT
HETATM    1  C   UNL     1      10.560   1.784  22.185  1.00  0.00     0.139 A 
HETATM    2  C   UNL     1      10.187   1.296  23.513  1.00  0.00     0.181 A 
HETATM    3  N   UNL     1      11.054   2.273  23.417  1.00  0.00    -0.257 NA
ENDROOT
BRANCH   3   4
HETATM    4  C   UNL     1      10.860   3.575  23.679  1.00  0.00     0.012 A 
HETATM    5  C   UNL     1       9.624   4.091  24.118  1.00  0.00     0.024 A 
HETATM    6  C   UNL     1       9.542   5.410  24.423  1.00  0.00     0.002 A 
HETATM    7  C   UNL     1      10.639   6.242  24.227  1.00  0.00     0.000 A 
HETATM    8  C   UNL     1      11.849   5.724  23.810  1.00  0.00     0.002 A 
HETATM    9  C   UNL     1      11.991   4.375  23.584  1.00  0.00     0.024 A 
ENDBRANCH   3   4
BRANCH   2  10
HETATM   10  N   UNL     1      10.894   0.034  24.020  1.00  0.00    -0.348 N 
HETATM   11  C   UNL     1      10.244  -1.089  23.850  1.00  0.00     0.123 C 
BRANCH  10  12
HETATM   12  C   UNL     1      12.081   0.211  24.580  1.00  0.00     0.176 C 
HETATM   13 CL   UNL     1      13.460  -0.574  24.060  1.00  0.00    -0.078 Cl
ENDBRANCH  10  12
ENDBRANCH   2  10
TORSDOF 3
ENDMDL
MODEL 3
REMARK VINA RESULT:    -4.747      2.818      3.653
REMARK INTER + INTRA:          -5.163
REMARK INTER:                  -5.348
REMARK INTRA:                   0.185
REMARK UNBOUND:                 0.417
REMARK  3 active torsions:
REMARK  status: ('A' for Active; 'I' for Inactive)
REMARK    1  A    between atoms: N_5  and  C_6 
REMARK    2  A    between atoms: N_5  and  C_10 
REMARK    3  A    between atoms: N_11  and  C_12 
ROOT
HETATM    1  C   UNL     1       8.716  -1.349  21.730  1.00  0.00     0.139 A 
HETATM    2  C   UNL     1       8.896  -0.125  20.948  1.00  0.00     0.181 A 
HETATM    3  N   UNL     1       9.133  -0.095  22.236  1.00  0.00    -0.257 NA
ENDROOT
BRANCH   3   4
HETATM    4  C   UNL     1      10.325  -0.052  22.853  1.00  0.00     0.012 A 
HETATM    5  C   UNL     1      10.791   1.087  23.538  1.00  0.00     0.024 A 
HETATM    6  C   UNL     1      11.979   1.014  24.189  1.00  0.00     0.002 A 
HETATM    7  C   UNL     1      12.749  -0.142  24.107  1.00  0.00     0.000 A 
HETATM    8  C   UNL     1      12.278  -1.256  23.445  1.00  0.00     0.002 A 
HETATM    9  C   UNL     1      11.035  -1.246  22.856  1.00  0.00     0.024 A 
ENDBRANCH   3   4
BRANCH   2  10
HETATM   10  N   UNL     1       7.641   0.701  20.642  1.00  0.00    -0.348 N 
HETATM   11  C   UNL     1       7.354   1.640  21.507  1.00  0.00     0.123 C 
BRANCH  10  12
HETATM   12  C   UNL     1       6.980   0.377  19.542  1.00  0.00     0.176 C 
HETATM   13 CL   UNL     1       5.643  -0.623  19.543  1.00  0.00    -0.078 Cl
ENDBRANCH  10  12
ENDBRANCH   2  10
TORSDOF 3
ENDMDL
MODEL 4
REMARK VINA RESULT:    -4.743      4.096      6.005
REMARK INTER + INTRA:          -5.158
REMARK INTER:                  -5.363
REMARK INTRA:                   0.205
REMARK UNBOUND:                 0.417
REMARK  3 active torsions:
REMARK  status: ('A' for Active; 'I' for Inactive)
REMARK    1  A    between atoms: N_5  and  C_6 
REMARK    2  A    between atoms: N_5  and  C_10 
REMARK    3  A    between atoms: N_11  and  C_12 
ROOT
HETATM    1  C   UNL     1       8.959   1.224  21.910  1.00  0.00     0.139 A 
HETATM    2  C   UNL     1       9.363   0.005  21.209  1.00  0.00     0.181 A 
HETATM    3  N   UNL     1       8.087   0.236  21.396  1.00  0.00    -0.257 NA
ENDROOT
BRANCH   3   4
HETATM    4  C   UNL     1       7.181   0.634  20.489  1.00  0.00     0.012 A 
HETATM    5  C   UNL     1       7.189   0.188  19.152  1.00  0.00     0.024 A 
HETATM    6  C   UNL     1       6.193   0.592  18.326  1.00  0.00     0.002 A 
HETATM    7  C   UNL     1       5.233   1.492  18.778  1.00  0.00     0.000 A 
HETATM    8  C   UNL     1       5.226   1.912  20.092  1.00  0.00     0.002 A 
HETATM    9  C   UNL     1       6.167   1.445  20.980  1.00  0.00     0.024 A 
ENDBRANCH   3   4
BRANCH   2  10
HETATM   10  N   UNL     1       9.798  -1.187  22.069  1.00  0.00    -0.348 N 
HETATM   11  C   UNL     1       8.863  -2.062  22.342  1.00  0.00     0.123 C 
BRANCH  10  12
HETATM   12  C   UNL     1      11.066  -1.205  22.448  1.00  0.00     0.176 C 
HETATM   13 CL   UNL     1      11.556  -0.858  24.007  1.00  0.00    -0.078 Cl
ENDBRANCH  10  12
ENDBRANCH   2  10
TORSDOF 3
ENDMDL
MODEL 5
REMARK VINA RESULT:    -4.694      4.419      6.359
REMARK INTER + INTRA:          -5.100
REMARK INTER:                  -5.349
REMARK INTRA:                   0.249
REMARK UNBOUND:                 0.417
REMARK  3 active torsions:
REMARK  status: ('A' for Active; 'I' for Inactive)
REMARK    1  A    between atoms: N_5  and  C_6 
REMARK    2  A    between atoms: N_5  and  C_10 
REMARK    3  A    between atoms: N_11  and  C_12 
ROOT
HETATM    1  C   UNL     1       8.694  -0.954  21.405  1.00  0.00     0.139 A 
HETATM    2  C   UNL     1       8.733   0.232  22.262  1.00  0.00     0.181 A 
HETATM    3  N   UNL     1       8.518   0.384  20.979  1.00  0.00    -0.257 NA
ENDROOT
BRANCH   3   4
HETATM    4  C   UNL     1       7.360   0.682  20.368  1.00  0.00     0.012 A 
HETATM    5  C   UNL     1       6.388   1.526  20.942  1.00  0.00     0.024 A 
HETATM    6  C   UNL     1       5.279   1.824  20.220  1.00  0.00     0.002 A 
HETATM    7  C   UNL     1       5.079   1.239  18.973  1.00  0.00     0.000 A 
HETATM    8  C   UNL     1       6.044   0.425  18.415  1.00  0.00     0.002 A 
HETATM    9  C   UNL     1       7.222   0.180  19.081  1.00  0.00     0.024 A 
ENDBRANCH   3   4
BRANCH   2  10
HETATM   10  N   UNL     1      10.114   0.794  22.619  1.00  0.00    -0.348 N 
HETATM   11  C   UNL     1      10.488   1.851  21.944  1.00  0.00     0.123 C 
BRANCH  10  12
HETATM   12  C   UNL     1      10.783   0.152  23.563  1.00  0.00     0.176 C 
HETATM   13 CL   UNL     1      12.207   0.725  24.222  1.00  0.00    -0.078 Cl
ENDBRANCH  10  12
ENDBRANCH   2  10
TORSDOF 3
ENDMDL
MODEL 6
REMARK VINA RESULT:    -4.552      2.137      2.849
REMARK INTER + INTRA:          -4.934
REMARK INTER:                  -5.155
REMARK INTRA:                   0.221
REMARK UNBOUND:                 0.417
REMARK  3 active torsions:
REMARK  status: ('A' for Active; 'I' for Inactive)
REMARK    1  A    between atoms: N_5  and  C_6 
REMARK    2  A    between atoms: N_5  and  C_10 
REMARK    3  A    between atoms: N_11  and  C_12 
ROOT
HETATM    1  C   UNL     1       8.447  -2.021  24.423  1.00  0.00     0.139 A 
HETATM    2  C   UNL     1       8.501  -2.237  22.976  1.00  0.00     0.181 A 
HETATM    3  N   UNL     1       9.112  -1.196  23.485  1.00  0.00    -0.257 NA
ENDROOT
BRANCH   3   4
HETATM    4  C   UNL     1      10.432  -1.019  23.657  1.00  0.00     0.012 A 
HETATM    5  C   UNL     1      11.401  -1.763  22.955  1.00  0.00     0.024 A 
HETATM    6  C   UNL     1      12.711  -1.467  23.144  1.00  0.00     0.002 A 
HETATM    7  C   UNL     1      13.080  -0.500  24.073  1.00  0.00     0.000 A 
HETATM    8  C   UNL     1      12.123   0.233  24.745  1.00  0.00     0.002 A 
HETATM    9  C   UNL     1      10.786   0.022  24.505  1.00  0.00     0.024 A 
ENDBRANCH   3   4
BRANCH   2  10
HETATM   10  N   UNL     1       7.295  -1.768  22.153  1.00  0.00    -0.348 N 
HETATM   11  C   UNL     1       6.337  -2.646  21.997  1.00  0.00     0.123 C 
BRANCH  10  12
HETATM   12  C   UNL     1       7.351  -0.532  21.682  1.00  0.00     0.176 C 
HETATM   13 CL   UNL     1       6.880  -0.124  20.133  1.00  0.00    -0.078 Cl
ENDBRANCH  10  12
ENDBRANCH   2  10
TORSDOF 3
ENDMDL
MODEL 7
REMARK VINA RESULT:    -4.485      5.093      6.914
REMARK INTER + INTRA:          -4.855
REMARK INTER:                  -5.097
REMARK INTRA:                   0.242
REMARK UNBOUND:                 0.417
REMARK  3 active torsions:
REMARK  status: ('A' for Active; 'I' for Inactive)
REMARK    1  A    between atoms: N_5  and  C_6 
REMARK    2  A    between atoms: N_5  and  C_10 
REMARK    3  A    between atoms: N_11  and  C_12 
ROOT
HETATM    1  C   UNL     1       9.693   2.992  24.436  1.00  0.00     0.139 A 
HETATM    2  C   UNL     1      10.477   3.620  23.372  1.00  0.00     0.181 A 
HETATM    3  N   UNL     1      11.000   2.622  24.041  1.00  0.00    -0.257 NA
ENDROOT
BRANCH   3   4
HETATM    4  C   UNL     1      11.177   1.357  23.627  1.00  0.00     0.012 A 
HETATM    5  C   UNL     1      12.021   0.446  24.293  1.00  0.00     0.024 A 
HETATM    6  C   UNL     1      12.084  -0.831  23.841  1.00  0.00     0.002 A 
HETATM    7  C   UNL     1      11.387  -1.202  22.696  1.00  0.00     0.000 A 
HETATM    8  C   UNL     1      10.552  -0.306  22.060  1.00  0.00     0.002 A 
HETATM    9  C   UNL     1      10.393   0.970  22.549  1.00  0.00     0.024 A 
ENDBRANCH   3   4
BRANCH   2  10
HETATM   10  N   UNL     1      11.222   4.914  23.720  1.00  0.00    -0.348 N 
HETATM   11  C   UNL     1      12.529   4.840  23.702  1.00  0.00     0.123 C 
BRANCH  10  12
HETATM   12  C   UNL     1      10.470   5.965  24.008  1.00  0.00     0.176 C 
HETATM   13 CL   UNL     1       9.120   6.390  23.121  1.00  0.00    -0.078 Cl
ENDBRANCH  10  12
ENDBRANCH   2  10
TORSDOF 3
ENDMDL
MODEL 8
REMARK VINA RESULT:    -4.453     12.477     14.247
REMARK INTER + INTRA:          -4.817
REMARK INTER:                  -5.062
REMARK INTRA:                   0.246
REMARK UNBOUND:                 0.417
REMARK  3 active torsions:
REMARK  status: ('A' for Active; 'I' for Inactive)
REMARK    1  A    between atoms: N_5  and  C_6 
REMARK    2  A    between atoms: N_5  and  C_10 
REMARK    3  A    between atoms: N_11  and  C_12 
ROOT
HETATM    1  C   UNL     1      24.305  -4.189  24.145  1.00  0.00     0.139 A 
HETATM    2  C   UNL     1      23.541  -4.723  25.273  1.00  0.00     0.181 A 
HETATM    3  N   UNL     1      23.848  -3.450  25.262  1.00  0.00    -0.257 NA
ENDROOT
BRANCH   3   4
HETATM    4  C   UNL     1      23.037  -2.409  25.015  1.00  0.00     0.012 A 
HETATM    5  C   UNL     1      23.506  -1.173  24.528  1.00  0.00     0.024 A 
HETATM    6  C   UNL     1      22.603  -0.201  24.244  1.00  0.00     0.002 A 
HETATM    7  C   UNL     1      21.252  -0.406  24.506  1.00  0.00     0.000 A 
HETATM    8  C   UNL     1      20.802  -1.625  24.969  1.00  0.00     0.002 A 
HETATM    9  C   UNL     1      21.681  -2.661  25.178  1.00  0.00     0.024 A 
ENDBRANCH   3   4
BRANCH   2  10
HETATM   10  N   UNL     1      24.329  -5.429  26.382  1.00  0.00    -0.348 N 
HETATM   11  C   UNL     1      24.660  -4.685  27.406  1.00  0.00     0.123 C 
BRANCH  10  12
HETATM   12  C   UNL     1      24.596  -6.711  26.187  1.00  0.00     0.176 C 
HETATM   13 CL   UNL     1      24.134  -7.540  24.812  1.00  0.00    -0.078 Cl
ENDBRANCH  10  12
ENDBRANCH   2  10
TORSDOF 3
ENDMDL
MODEL 9
REMARK VINA RESULT:    -4.369      2.030      2.490
REMARK INTER + INTRA:          -4.718
REMARK INTER:                  -4.936
REMARK INTRA:                   0.219
REMARK UNBOUND:                 0.417
REMARK  3 active torsions:
REMARK  status: ('A' for Active; 'I' for Inactive)
REMARK    1  A    between atoms: N_5  and  C_6 
REMARK    2  A    between atoms: N_5  and  C_10 
REMARK    3  A    between atoms: N_11  and  C_12 
ROOT
HETATM    1  C   UNL     1       7.694  -1.967  25.824  1.00  0.00     0.139 A 
HETATM    2  C   UNL     1       8.602  -3.103  25.986  1.00  0.00     0.181 A 
HETATM    3  N   UNL     1       8.695  -2.367  24.907  1.00  0.00    -0.257 NA
ENDROOT
BRANCH   3   4
HETATM    4  C   UNL     1       9.642  -1.464  24.606  1.00  0.00     0.012 A 
HETATM    5  C   UNL     1       9.869  -0.307  25.378  1.00  0.00     0.024 A 
HETATM    6  C   UNL     1      10.893   0.513  25.034  1.00  0.00     0.002 A 
HETATM    7  C   UNL     1      11.647   0.249  23.895  1.00  0.00     0.000 A 
HETATM    8  C   UNL     1      11.425  -0.894  23.154  1.00  0.00     0.002 A 
HETATM    9  C   UNL     1      10.456  -1.794  23.531  1.00  0.00     0.024 A 
ENDBRANCH   3   4
BRANCH   2  10
HETATM   10  N   UNL     1       8.063  -4.489  25.613  1.00  0.00    -0.348 N 
HETATM   11  C   UNL     1       8.207  -4.836  24.360  1.00  0.00     0.123 C 
BRANCH  10  12
HETATM   12  C   UNL     1       7.507  -5.185  26.593  1.00  0.00     0.176 C 
HETATM   13 CL   UNL     1       6.070  -6.019  26.417  1.00  0.00    -0.078 Cl
ENDBRANCH  10  12
ENDBRANCH   2  10
TORSDOF 3
ENDMDL
