REMARK  3 active torsions:
REMARK  status: ('A' for Active; 'I' for Inactive)
REMARK    1  A    between atoms: N_5  and  C_6 
REMARK    2  A    between atoms: N_5  and  C_10 
REMARK    3  A    between atoms: N_11  and  C_12 
ROOT
HETATM    1  C   UNL     1       9.293  -2.513  21.578  1.00  0.00     0.139 A 
HETATM    2  C   UNL     1       9.391  -2.393  23.033  1.00  0.00     0.181 A 
HETATM    3  N   UNL     1       9.204  -1.311  22.319  1.00  0.00    -0.257 NA
ENDROOT
BRANCH   3   4
HETATM    4  C   UNL     1       8.075  -0.596  22.188  1.00  0.00     0.012 A 
HETATM    5  C   UNL     1       7.247  -0.267  23.280  1.00  0.00     0.024 A 
HETATM    6  C   UNL     1       6.162   0.517  23.060  1.00  0.00     0.002 A 
HETATM    7  C   UNL     1       5.840   0.916  21.767  1.00  0.00     0.000 A 
HETATM    8  C   UNL     1       6.665   0.600  20.707  1.00  0.00     0.002 A 
HETATM    9  C   UNL     1       7.823  -0.113  20.911  1.00  0.00     0.024 A 
ENDBRANCH   3   4
BRANCH   2  10
HETATM   10  N   UNL     1      10.798  -2.366  23.641  1.00  0.00    -0.348 N 
HETATM   11  C   UNL     1      10.915  -2.905  24.828  1.00  0.00     0.123 C 
BRANCH  10  12
HETATM   12  C   UNL     1      11.743  -1.798  22.908  1.00  0.00     0.176 C 
HETATM   13 CL   UNL     1      11.634  -0.234  22.332  1.00  0.00    -0.078 Cl
ENDBRANCH  10  12
ENDBRANCH   2  10
TORSDOF 3
