REMARK  5 active torsions:
REMARK  status: ('A' for Active; 'I' for Inactive)
REMARK    1  A    between atoms: S_2  and  N_5 
REMARK    2  A    between atoms: N_5  and  C_7 
REMARK    3  A    between atoms: C_7  and  C_8 
REMARK    4  A    between atoms: C_15  and  C_16 
REMARK       I    between atoms: C_16  and  N_18 
REMARK    5  A    between atoms: N_18  and  C_20 
ROOT
HETATM    1  C   UNL     1       9.435  -1.957  23.538  1.00  0.00     0.040 A 
HETATM    2  C   UNL     1      10.397  -1.138  23.235  1.00  0.00     0.066 A 
HETATM    3  C   UNL     1      11.073   0.003  24.241  1.00  0.00    -0.003 C 
HETATM    4  C   UNL     1      12.153   0.298  24.202  1.00  0.00    -0.002 C 
HETATM    5  C   UNL     1      13.144  -0.168  23.472  1.00  0.00    -0.001 C 
HETATM    6  C   UNL     1      12.751  -1.290  22.663  1.00  0.00    -0.002 C 
HETATM    7  C   UNL     1      11.772  -1.710  22.588  1.00  0.00    -0.003 C 
HETATM    8  C   UNL     1       9.708  -0.655  22.407  1.00  0.00     0.049 A 
ENDROOT
BRANCH   8   9
HETATM    9  C   UNL     1       9.061   0.049  21.386  1.00  0.00     0.255 C 
HETATM   10  O   UNL     1       9.612   0.943  20.915  1.00  0.00    -0.268 OA
HETATM   11  N   UNL     1       7.887  -0.490  21.158  1.00  0.00    -0.321 N 
ATOM     12  HN  UNL     1       7.550  -1.262  21.734  1.00  0.00     0.169 HD
BRANCH  11  13
HETATM   13  C   UNL     1       7.182  -0.038  20.215  1.00  0.00     0.060 A 
HETATM   14  C   UNL     1       7.155   0.041  18.892  1.00  0.00     0.117 A 
HETATM   15  N   UNL     1       6.743   0.303  17.800  1.00  0.00    -0.373 N 
HETATM   16  C   UNL     1       5.611   0.824  18.281  1.00  0.00     0.088 A 
ATOM     17  HN  UNL     1       7.115   0.177  16.859  1.00  0.00     0.164 HD
HETATM   18  C   UNL     1       5.238   0.911  19.384  1.00  0.00     0.030 A 
HETATM   19  C   UNL     1       5.781   0.574  20.570  1.00  0.00    -0.016 A 
HETATM   20  C   UNL     1       5.348   0.662  21.712  1.00  0.00     0.026 C 
ENDBRANCH  11  13
ENDBRANCH   8   9
BRANCH   1  21
HETATM   21  C   UNL     1       8.923  -2.888  24.157  1.00  0.00    -0.022 C 
BRANCH  21  22
HETATM   22  N   UNL     1       8.124  -3.522  24.717  1.00  0.00    -0.249 N 
ATOM     23  HN  UNL     1       7.232  -3.590  24.227  1.00  0.00     0.188 HD
BRANCH  22  24
HETATM   24  S   UNL     1       8.162  -4.324  26.139  1.00  0.00     0.233 S 
HETATM   25  C   UNL     1       6.680  -4.779  26.460  1.00  0.00     0.186 C 
HETATM   26  O   UNL     1       8.989  -5.499  26.008  1.00  0.00    -0.205 OA
HETATM   27  O   UNL     1       8.655  -3.440  27.159  1.00  0.00    -0.205 OA
ENDBRANCH  22  24
ENDBRANCH  21  22
ENDBRANCH   1  21
TORSDOF 5
