MODEL 1
REMARK VINA RESULT:    -7.861      0.000      0.000
REMARK INTER + INTRA:         -10.803
REMARK INTER:                 -10.159
REMARK INTRA:                  -0.644
REMARK UNBOUND:                -0.644
REMARK  5 active torsions:
REMARK  status: ('A' for Active; 'I' for Inactive)
REMARK    1  A    between atoms: S_2  and  N_5 
REMARK    2  A    between atoms: N_5  and  C_7 
REMARK    3  A    between atoms: C_7  and  C_8 
REMARK    4  A    between atoms: C_15  and  C_16 
REMARK       I    between atoms: C_16  and  N_18 
REMARK    5  A    between atoms: N_18  and  C_20 
ROOT
HETATM    1  C   UNL     1       8.916  -2.332  23.466  1.00  0.00     0.040 A 
HETATM    2  C   UNL     1       9.759  -1.346  23.394  1.00  0.00     0.066 A 
HETATM    3  C   UNL     1       9.990  -0.161  24.540  1.00  0.00    -0.003 C 
HETATM    4  C   UNL     1      10.983   0.315  24.744  1.00  0.00    -0.002 C 
HETATM    5  C   UNL     1      12.174   0.063  24.244  1.00  0.00    -0.001 C 
HETATM    6  C   UNL     1      12.170  -1.065  23.353  1.00  0.00    -0.002 C 
HETATM    7  C   UNL     1      11.320  -1.641  23.058  1.00  0.00    -0.003 C 
HETATM    8  C   UNL     1       9.189  -0.945  22.441  1.00  0.00     0.049 A 
ENDROOT
BRANCH   8   9
HETATM    9  C   UNL     1       8.662  -0.308  21.312  1.00  0.00     0.255 C 
HETATM   10  O   UNL     1       9.374   0.331  20.673  1.00  0.00    -0.268 OA
HETATM   11  N   UNL     1       7.386  -0.592  21.206  1.00  0.00    -0.321 N 
ATOM     12  HN  UNL     1       6.916  -1.145  21.923  1.00  0.00     0.169 HD
BRANCH  11  13
HETATM   13  C   UNL     1       6.749  -0.168  20.203  1.00  0.00     0.060 A 
HETATM   14  C   UNL     1       6.376  -0.537  18.986  1.00  0.00     0.117 A 
HETATM   15  N   UNL     1       5.843  -0.473  17.917  1.00  0.00    -0.373 N 
HETATM   16  C   UNL     1       5.310   0.722  18.181  1.00  0.00     0.088 A 
ATOM     17  HN  UNL     1       5.810  -1.095  17.109  1.00  0.00     0.164 HD
HETATM   18  C   UNL     1       5.371   1.370  19.151  1.00  0.00     0.030 A 
HETATM   19  C   UNL     1       6.002   1.206  20.330  1.00  0.00    -0.016 A 
HETATM   20  C   UNL     1       6.026   1.901  21.338  1.00  0.00     0.026 C 
ENDBRANCH  11  13
ENDBRANCH   8   9
BRANCH   1  21
HETATM   21  C   UNL     1       8.456  -3.367  23.943  1.00  0.00    -0.022 C 
BRANCH  21  22
HETATM   22  N   UNL     1       8.311  -4.271  24.662  1.00  0.00    -0.249 N 
ATOM     23  HN  UNL     1       8.532  -5.174  24.242  1.00  0.00     0.188 HD
BRANCH  22  24
HETATM   24  S   UNL     1       7.820  -4.365  26.217  1.00  0.00     0.233 S 
HETATM   25  C   UNL     1       6.751  -5.530  26.300  1.00  0.00     0.186 C 
HETATM   26  O   UNL     1       8.942  -4.706  27.057  1.00  0.00    -0.205 OA
HETATM   27  O   UNL     1       7.234  -3.109  26.597  1.00  0.00    -0.205 OA
ENDBRANCH  22  24
ENDBRANCH  21  22
ENDBRANCH   1  21
TORSDOF 5
ENDMDL
MODEL 2
REMARK VINA RESULT:    -7.855      1.818      1.947
REMARK INTER + INTRA:         -10.795
REMARK INTER:                 -10.104
REMARK INTRA:                  -0.691
REMARK UNBOUND:                -0.644
REMARK  5 active torsions:
REMARK  status: ('A' for Active; 'I' for Inactive)
REMARK    1  A    between atoms: S_2  and  N_5 
REMARK    2  A    between atoms: N_5  and  C_7 
REMARK    3  A    between atoms: C_7  and  C_8 
REMARK    4  A    between atoms: C_15  and  C_16 
REMARK       I    between atoms: C_16  and  N_18 
REMARK    5  A    between atoms: N_18  and  C_20 
ROOT
HETATM    1  C   UNL     1       8.807  -2.469  23.306  1.00  0.00     0.040 A 
HETATM    2  C   UNL     1       9.629  -1.463  23.319  1.00  0.00     0.066 A 
HETATM    3  C   UNL     1       9.793  -0.341  24.537  1.00  0.00    -0.003 C 
HETATM    4  C   UNL     1      10.767   0.145  24.802  1.00  0.00    -0.002 C 
HETATM    5  C   UNL     1      11.980  -0.052  24.331  1.00  0.00    -0.001 C 
HETATM    6  C   UNL     1      12.032  -1.128  23.378  1.00  0.00    -0.002 C 
HETATM    7  C   UNL     1      11.207  -1.704  23.022  1.00  0.00    -0.003 C 
HETATM    8  C   UNL     1       9.082  -1.021  22.371  1.00  0.00     0.049 A 
ENDROOT
BRANCH   8   9
HETATM    9  C   UNL     1       8.578  -0.333  21.262  1.00  0.00     0.255 C 
HETATM   10  O   UNL     1       9.302   0.336  20.668  1.00  0.00    -0.268 OA
HETATM   11  N   UNL     1       7.304  -0.611  21.116  1.00  0.00    -0.321 N 
ATOM     12  HN  UNL     1       6.820  -1.197  21.796  1.00  0.00     0.169 HD
BRANCH  11  13
HETATM   13  C   UNL     1       6.689  -0.142  20.120  1.00  0.00     0.060 A 
HETATM   14  C   UNL     1       6.314  -0.467  18.891  1.00  0.00     0.117 A 
HETATM   15  N   UNL     1       5.792  -0.358  17.820  1.00  0.00    -0.373 N 
HETATM   16  C   UNL     1       5.292   0.846  18.113  1.00  0.00     0.088 A 
ATOM     17  HN  UNL     1       5.746  -0.956  16.996  1.00  0.00     0.164 HD
HETATM   18  C   UNL     1       5.366   1.465  19.101  1.00  0.00     0.030 A 
HETATM   19  C   UNL     1       5.982   1.251  20.279  1.00  0.00    -0.016 A 
HETATM   20  C   UNL     1       6.020   1.918  21.306  1.00  0.00     0.026 C 
ENDBRANCH  11  13
ENDBRANCH   8   9
BRANCH   1  21
HETATM   21  C   UNL     1       8.357  -3.541  23.708  1.00  0.00    -0.022 C 
BRANCH  21  22
HETATM   22  N   UNL     1       7.698  -4.498  23.768  1.00  0.00    -0.249 N 
ATOM     23  HN  UNL     1       7.766  -4.992  24.657  1.00  0.00     0.188 HD
BRANCH  22  24
HETATM   24  S   UNL     1       6.684  -5.198  22.696  1.00  0.00     0.233 S 
HETATM   25  C   UNL     1       5.987  -4.034  21.881  1.00  0.00     0.186 C 
HETATM   26  O   UNL     1       7.441  -6.016  21.780  1.00  0.00    -0.205 OA
HETATM   27  O   UNL     1       5.709  -5.971  23.415  1.00  0.00    -0.205 OA
ENDBRANCH  22  24
ENDBRANCH  21  22
ENDBRANCH   1  21
TORSDOF 5
ENDMDL
MODEL 3
REMARK VINA RESULT:    -7.790      2.302      6.375
REMARK INTER + INTRA:         -10.711
REMARK INTER:                  -9.820
REMARK INTRA:                  -0.891
REMARK UNBOUND:                -0.644
REMARK  5 active torsions:
REMARK  status: ('A' for Active; 'I' for Inactive)
REMARK    1  A    between atoms: S_2  and  N_5 
REMARK    2  A    between atoms: N_5  and  C_7 
REMARK    3  A    between atoms: C_7  and  C_8 
REMARK    4  A    between atoms: C_15  and  C_16 
REMARK       I    between atoms: C_16  and  N_18 
REMARK    5  A    between atoms: N_18  and  C_20 
ROOT
HETATM    1  C   UNL     1       9.295  -0.032  22.963  1.00  0.00     0.040 A 
HETATM    2  C   UNL     1      10.341  -0.580  23.505  1.00  0.00     0.066 A 
HETATM    3  C   UNL     1      11.459  -1.543  22.734  1.00  0.00    -0.003 C 
HETATM    4  C   UNL     1      12.547  -1.561  23.001  1.00  0.00    -0.002 C 
HETATM    5  C   UNL     1      13.228  -0.847  23.872  1.00  0.00    -0.001 C 
HETATM    6  C   UNL     1      12.424   0.162  24.506  1.00  0.00    -0.002 C 
HETATM    7  C   UNL     1      11.379   0.329  24.360  1.00  0.00    -0.003 C 
HETATM    8  C   UNL     1       9.632  -1.198  24.218  1.00  0.00     0.049 A 
ENDROOT
BRANCH   8   9
HETATM    9  C   UNL     1       8.975  -2.015  25.144  1.00  0.00     0.255 C 
HETATM   10  O   UNL     1       8.687  -1.555  26.159  1.00  0.00    -0.268 OA
HETATM   11  N   UNL     1       8.810  -3.212  24.633  1.00  0.00    -0.321 N 
ATOM     12  HN  UNL     1       9.195  -3.442  23.717  1.00  0.00     0.169 HD
BRANCH  11  13
HETATM   13  C   UNL     1       8.167  -4.073  25.294  1.00  0.00     0.060 A 
HETATM   14  C   UNL     1       8.306  -4.907  26.314  1.00  0.00     0.117 A 
HETATM   15  N   UNL     1       8.004  -5.724  27.134  1.00  0.00    -0.373 N 
HETATM   16  C   UNL     1       6.738  -5.776  26.712  1.00  0.00     0.088 A 
ATOM     17  HN  UNL     1       8.519  -6.201  27.874  1.00  0.00     0.164 HD
HETATM   18  C   UNL     1       6.208  -5.172  25.864  1.00  0.00     0.030 A 
HETATM   19  C   UNL     1       6.639  -4.250  24.982  1.00  0.00    -0.016 A 
HETATM   20  C   UNL     1       6.045  -3.620  24.116  1.00  0.00     0.026 C 
ENDBRANCH  11  13
ENDBRANCH   8   9
BRANCH   1  21
HETATM   21  C   UNL     1       8.714   0.729  22.190  1.00  0.00    -0.022 C 
BRANCH  21  22
HETATM   22  N   UNL     1       7.998   1.100  21.352  1.00  0.00    -0.249 N 
ATOM     23  HN  UNL     1       7.890   2.114  21.319  1.00  0.00     0.188 HD
BRANCH  22  24
HETATM   24  S   UNL     1       7.134   0.305  20.218  1.00  0.00     0.233 S 
HETATM   25  C   UNL     1       5.872   1.198  19.878  1.00  0.00     0.186 C 
HETATM   26  O   UNL     1       7.930   0.153  19.023  1.00  0.00    -0.205 OA
HETATM   27  O   UNL     1       6.729  -0.968  20.749  1.00  0.00    -0.205 OA
ENDBRANCH  22  24
ENDBRANCH  21  22
ENDBRANCH   1  21
TORSDOF 5
ENDMDL
MODEL 4
REMARK VINA RESULT:    -7.641      3.831      5.612
REMARK INTER + INTRA:         -10.518
REMARK INTER:                  -9.820
REMARK INTRA:                  -0.698
REMARK UNBOUND:                -0.644
REMARK  5 active torsions:
REMARK  status: ('A' for Active; 'I' for Inactive)
REMARK    1  A    between atoms: S_2  and  N_5 
REMARK    2  A    between atoms: N_5  and  C_7 
REMARK    3  A    between atoms: C_7  and  C_8 
REMARK    4  A    between atoms: C_15  and  C_16 
REMARK       I    between atoms: C_16  and  N_18 
REMARK    5  A    between atoms: N_18  and  C_20 
ROOT
HETATM    1  C   UNL     1       7.973  -4.725  25.425  1.00  0.00     0.040 A 
HETATM    2  C   UNL     1       7.500  -4.545  24.229  1.00  0.00     0.066 A 
HETATM    3  C   UNL     1       7.547  -5.641  22.976  1.00  0.00    -0.003 C 
HETATM    4  C   UNL     1       6.742  -5.727  22.201  1.00  0.00    -0.002 C 
HETATM    5  C   UNL     1       5.590  -5.102  22.088  1.00  0.00    -0.001 C 
HETATM    6  C   UNL     1       5.323  -4.234  23.202  1.00  0.00    -0.002 C 
HETATM    7  C   UNL     1       5.969  -4.043  24.031  1.00  0.00    -0.003 C 
HETATM    8  C   UNL     1       8.261  -3.656  24.075  1.00  0.00     0.049 A 
ENDROOT
BRANCH   8   9
HETATM    9  C   UNL     1       9.075  -2.583  23.695  1.00  0.00     0.255 C 
HETATM   10  O   UNL     1       9.239  -2.404  22.570  1.00  0.00    -0.268 OA
HETATM   11  N   UNL     1       9.508  -1.961  24.765  1.00  0.00    -0.321 N 
ATOM     12  HN  UNL     1       9.289  -2.317  25.696  1.00  0.00     0.169 HD
BRANCH  11  13
HETATM   13  C   UNL     1      10.198  -0.915  24.624  1.00  0.00     0.060 A 
HETATM   14  C   UNL     1      11.421  -0.522  24.294  1.00  0.00     0.117 A 
HETATM   15  N   UNL     1      12.323   0.225  24.050  1.00  0.00    -0.373 N 
HETATM   16  C   UNL     1      11.561   1.308  24.230  1.00  0.00     0.088 A 
ATOM     17  HN  UNL     1      13.302   0.088  23.801  1.00  0.00     0.164 HD
HETATM   18  C   UNL     1      10.426   1.387  24.492  1.00  0.00     0.030 A 
HETATM   19  C   UNL     1       9.472   0.471  24.746  1.00  0.00    -0.016 A 
HETATM   20  C   UNL     1       8.280   0.592  24.998  1.00  0.00     0.026 C 
ENDBRANCH  11  13
ENDBRANCH   8   9
BRANCH   1  21
HETATM   21  C   UNL     1       8.027  -5.266  26.528  1.00  0.00    -0.022 C 
BRANCH  21  22
HETATM   22  N   UNL     1       7.788  -5.996  27.402  1.00  0.00    -0.249 N 
ATOM     23  HN  UNL     1       8.538  -6.658  27.605  1.00  0.00     0.188 HD
BRANCH  22  24
HETATM   24  S   UNL     1       6.479  -6.162  28.365  1.00  0.00     0.233 S 
HETATM   25  C   UNL     1       5.220  -6.329  27.419  1.00  0.00     0.186 C 
HETATM   26  O   UNL     1       6.618  -7.353  29.167  1.00  0.00    -0.205 OA
HETATM   27  O   UNL     1       6.350  -4.986  29.180  1.00  0.00    -0.205 OA
ENDBRANCH  22  24
ENDBRANCH  21  22
ENDBRANCH   1  21
TORSDOF 5
ENDMDL
MODEL 5
REMARK VINA RESULT:    -6.952      2.815      6.902
REMARK INTER + INTRA:          -9.627
REMARK INTER:                  -8.805
REMARK INTRA:                  -0.822
REMARK UNBOUND:                -0.644
REMARK  5 active torsions:
REMARK  status: ('A' for Active; 'I' for Inactive)
REMARK    1  A    between atoms: S_2  and  N_5 
REMARK    2  A    between atoms: N_5  and  C_7 
REMARK    3  A    between atoms: C_7  and  C_8 
REMARK    4  A    between atoms: C_15  and  C_16 
REMARK       I    between atoms: C_16  and  N_18 
REMARK    5  A    between atoms: N_18  and  C_20 
ROOT
HETATM    1  C   UNL     1       7.147  -1.332  22.053  1.00  0.00     0.040 A 
HETATM    2  C   UNL     1       8.176  -1.621  22.791  1.00  0.00     0.066 A 
HETATM    3  C   UNL     1       9.739  -1.837  22.262  1.00  0.00    -0.003 C 
HETATM    4  C   UNL     1      10.640  -1.557  22.866  1.00  0.00    -0.002 C 
HETATM    5  C   UNL     1      10.738  -0.962  24.036  1.00  0.00    -0.001 C 
HETATM    6  C   UNL     1       9.460  -0.552  24.553  1.00  0.00    -0.002 C 
HETATM    7  C   UNL     1       8.506  -0.724  24.104  1.00  0.00    -0.003 C 
HETATM    8  C   UNL     1       7.659  -2.639  23.092  1.00  0.00     0.049 A 
ENDROOT
BRANCH   8   9
HETATM    9  C   UNL     1       7.226  -3.881  23.568  1.00  0.00     0.255 C 
HETATM   10  O   UNL     1       7.553  -4.822  22.993  1.00  0.00    -0.268 OA
HETATM   11  N   UNL     1       6.492  -3.707  24.642  1.00  0.00    -0.321 N 
ATOM     12  HN  UNL     1       6.267  -2.767  24.970  1.00  0.00     0.169 HD
BRANCH  11  13
HETATM   13  C   UNL     1       6.070  -4.721  25.262  1.00  0.00     0.060 A 
HETATM   14  C   UNL     1       6.386  -5.519  26.272  1.00  0.00     0.117 A 
HETATM   15  N   UNL     1       6.278  -6.407  27.066  1.00  0.00    -0.373 N 
HETATM   16  C   UNL     1       5.081  -6.769  26.595  1.00  0.00     0.088 A 
ATOM     17  HN  UNL     1       6.873  -6.756  27.816  1.00  0.00     0.164 HD
HETATM   18  C   UNL     1       4.442  -6.300  25.738  1.00  0.00     0.030 A 
HETATM   19  C   UNL     1       4.650  -5.275  24.889  1.00  0.00    -0.016 A 
HETATM   20  C   UNL     1       3.943  -4.795  24.012  1.00  0.00     0.026 C 
ENDBRANCH  11  13
ENDBRANCH   8   9
BRANCH   1  21
HETATM   21  C   UNL     1       6.487  -0.621  21.298  1.00  0.00    -0.022 C 
BRANCH  21  22
HETATM   22  N   UNL     1       5.911  -0.270  20.349  1.00  0.00    -0.249 N 
ATOM     23  HN  UNL     1       4.925  -0.071  20.514  1.00  0.00     0.188 HD
BRANCH  22  24
HETATM   24  S   UNL     1       6.386  -0.036  18.804  1.00  0.00     0.233 S 
HETATM   25  C   UNL     1       5.699   1.298  18.300  1.00  0.00     0.186 C 
HETATM   26  O   UNL     1       7.818   0.135  18.760  1.00  0.00    -0.205 OA
HETATM   27  O   UNL     1       5.962  -1.157  18.012  1.00  0.00    -0.205 OA
ENDBRANCH  22  24
ENDBRANCH  21  22
ENDBRANCH   1  21
TORSDOF 5
ENDMDL
MODEL 6
REMARK VINA RESULT:    -6.934      2.772      6.112
REMARK INTER + INTRA:          -9.604
REMARK INTER:                  -8.775
REMARK INTRA:                  -0.829
REMARK UNBOUND:                -0.644
REMARK  5 active torsions:
REMARK  status: ('A' for Active; 'I' for Inactive)
REMARK    1  A    between atoms: S_2  and  N_5 
REMARK    2  A    between atoms: N_5  and  C_7 
REMARK    3  A    between atoms: C_7  and  C_8 
REMARK    4  A    between atoms: C_15  and  C_16 
REMARK       I    between atoms: C_16  and  N_18 
REMARK    5  A    between atoms: N_18  and  C_20 
ROOT
HETATM    1  C   UNL     1       8.170  -0.259  21.099  1.00  0.00     0.040 A 
HETATM    2  C   UNL     1       7.016  -0.022  20.550  1.00  0.00     0.066 A 
HETATM    3  C   UNL     1       5.990   1.237  20.917  1.00  0.00    -0.003 C 
HETATM    4  C   UNL     1       5.332   1.737  20.161  1.00  0.00    -0.002 C 
HETATM    5  C   UNL     1       5.224   1.554  18.862  1.00  0.00    -0.001 C 
HETATM    6  C   UNL     1       6.180   0.605  18.359  1.00  0.00    -0.002 C 
HETATM    7  C   UNL     1       6.888   0.048  18.933  1.00  0.00    -0.003 C 
HETATM    8  C   UNL     1       6.622  -1.056  20.962  1.00  0.00     0.049 A 
ENDROOT
BRANCH   8   9
HETATM    9  C   UNL     1       5.968  -2.229  21.354  1.00  0.00     0.255 C 
HETATM   10  O   UNL     1       5.499  -2.884  20.532  1.00  0.00    -0.268 OA
HETATM   11  N   UNL     1       6.030  -2.350  22.659  1.00  0.00    -0.321 N 
ATOM     12  HN  UNL     1       6.452  -1.616  23.228  1.00  0.00     0.169 HD
BRANCH  11  13
HETATM   13  C   UNL     1       5.558  -3.389  23.197  1.00  0.00     0.060 A 
HETATM   14  C   UNL     1       4.401  -3.972  23.478  1.00  0.00     0.117 A 
HETATM   15  N   UNL     1       3.643  -4.807  23.874  1.00  0.00    -0.373 N 
HETATM   16  C   UNL     1       4.632  -5.632  24.227  1.00  0.00     0.088 A 
ATOM     17  HN  UNL     1       2.626  -4.867  23.925  1.00  0.00     0.164 HD
HETATM   18  C   UNL     1       5.787  -5.505  24.113  1.00  0.00     0.030 A 
HETATM   19  C   UNL     1       6.563  -4.511  23.638  1.00  0.00    -0.016 A 
HETATM   20  C   UNL     1       7.778  -4.422  23.514  1.00  0.00     0.026 C 
ENDBRANCH  11  13
ENDBRANCH   8   9
BRANCH   1  21
HETATM   21  C   UNL     1       9.342  -0.007  21.370  1.00  0.00    -0.022 C 
BRANCH  21  22
HETATM   22  N   UNL     1      10.331   0.079  21.978  1.00  0.00    -0.249 N 
ATOM     23  HN  UNL     1      10.980   0.778  21.616  1.00  0.00     0.188 HD
BRANCH  22  24
HETATM   24  S   UNL     1      10.875  -0.708  23.302  1.00  0.00     0.233 S 
HETATM   25  C   UNL     1      12.101  -1.600  22.845  1.00  0.00     0.186 C 
HETATM   26  O   UNL     1      11.337   0.250  24.276  1.00  0.00    -0.205 OA
HETATM   27  O   UNL     1       9.816  -1.527  23.824  1.00  0.00    -0.205 OA
ENDBRANCH  22  24
ENDBRANCH  21  22
ENDBRANCH   1  21
TORSDOF 5
ENDMDL
MODEL 7
REMARK VINA RESULT:    -6.859      2.789      6.027
REMARK INTER + INTRA:          -9.507
REMARK INTER:                  -8.763
REMARK INTRA:                  -0.744
REMARK UNBOUND:                -0.644
REMARK  5 active torsions:
REMARK  status: ('A' for Active; 'I' for Inactive)
REMARK    1  A    between atoms: S_2  and  N_5 
REMARK    2  A    between atoms: N_5  and  C_7 
REMARK    3  A    between atoms: C_7  and  C_8 
REMARK    4  A    between atoms: C_15  and  C_16 
REMARK       I    between atoms: C_16  and  N_18 
REMARK    5  A    between atoms: N_18  and  C_20 
ROOT
HETATM    1  C   UNL     1       8.778  -0.841  21.749  1.00  0.00     0.040 A 
HETATM    2  C   UNL     1       9.609  -1.046  22.727  1.00  0.00     0.066 A 
HETATM    3  C   UNL     1      11.205  -1.496  22.585  1.00  0.00    -0.003 C 
HETATM    4  C   UNL     1      12.005  -1.165  23.297  1.00  0.00    -0.002 C 
HETATM    5  C   UNL     1      11.954  -0.342  24.322  1.00  0.00    -0.001 C 
HETATM    6  C   UNL     1      10.662   0.271  24.473  1.00  0.00    -0.002 C 
HETATM    7  C   UNL     1       9.795   0.083  23.879  1.00  0.00    -0.003 C 
HETATM    8  C   UNL     1       8.925  -1.930  23.107  1.00  0.00     0.049 A 
ENDROOT
BRANCH   8   9
HETATM    9  C   UNL     1       8.262  -3.001  23.715  1.00  0.00     0.255 C 
HETATM   10  O   UNL     1       8.721  -3.444  24.673  1.00  0.00    -0.268 OA
HETATM   11  N   UNL     1       7.185  -3.297  23.028  1.00  0.00    -0.321 N 
ATOM     12  HN  UNL     1       6.976  -2.811  22.155  1.00  0.00     0.169 HD
BRANCH  11  13
HETATM   13  C   UNL     1       6.411  -4.193  23.464  1.00  0.00     0.060 A 
HETATM   14  C   UNL     1       5.453  -4.383  24.361  1.00  0.00     0.117 A 
HETATM   15  N   UNL     1       4.597  -4.952  24.972  1.00  0.00    -0.373 N 
HETATM   16  C   UNL     1       4.738  -6.070  24.256  1.00  0.00     0.088 A 
ATOM     17  HN  UNL     1       3.990  -4.684  25.746  1.00  0.00     0.164 HD
HETATM   18  C   UNL     1       5.446  -6.296  23.355  1.00  0.00     0.030 A 
HETATM   19  C   UNL     1       6.390  -5.575  22.721  1.00  0.00    -0.016 A 
HETATM   20  C   UNL     1       7.102  -5.840  21.760  1.00  0.00     0.026 C 
ENDBRANCH  11  13
ENDBRANCH   8   9
BRANCH   1  21
HETATM   21  C   UNL     1       8.361  -0.259  20.749  1.00  0.00    -0.022 C 
BRANCH  21  22
HETATM   22  N   UNL     1       7.679   0.388  20.064  1.00  0.00    -0.249 N 
ATOM     23  HN  UNL     1       8.157   1.179  19.633  1.00  0.00     0.188 HD
BRANCH  22  24
HETATM   24  S   UNL     1       6.101   0.268  19.663  1.00  0.00     0.233 S 
HETATM   25  C   UNL     1       6.003   0.439  18.092  1.00  0.00     0.186 C 
HETATM   26  O   UNL     1       5.611  -1.041  20.018  1.00  0.00    -0.205 OA
HETATM   27  O   UNL     1       5.369   1.307  20.334  1.00  0.00    -0.205 OA
ENDBRANCH  22  24
ENDBRANCH  21  22
ENDBRANCH   1  21
TORSDOF 5
ENDMDL
MODEL 8
REMARK VINA RESULT:    -6.798     14.284     15.535
REMARK INTER + INTRA:          -9.429
REMARK INTER:                  -8.596
REMARK INTRA:                  -0.833
REMARK UNBOUND:                -0.644
REMARK  5 active torsions:
REMARK  status: ('A' for Active; 'I' for Inactive)
REMARK    1  A    between atoms: S_2  and  N_5 
REMARK    2  A    between atoms: N_5  and  C_7 
REMARK    3  A    between atoms: C_7  and  C_8 
REMARK    4  A    between atoms: C_15  and  C_16 
REMARK       I    between atoms: C_16  and  N_18 
REMARK    5  A    between atoms: N_18  and  C_20 
ROOT
HETATM    1  C   UNL     1      23.731  -2.893  23.512  1.00  0.00     0.040 A 
HETATM    2  C   UNL     1      23.108  -1.754  23.552  1.00  0.00     0.066 A 
HETATM    3  C   UNL     1      21.686  -1.437  24.358  1.00  0.00    -0.003 C 
HETATM    4  C   UNL     1      21.451  -0.448  24.828  1.00  0.00    -0.002 C 
HETATM    5  C   UNL     1      22.179   0.643  24.943  1.00  0.00    -0.001 C 
HETATM    6  C   UNL     1      23.515   0.468  24.439  1.00  0.00    -0.002 C 
HETATM    7  C   UNL     1      23.911  -0.407  23.973  1.00  0.00    -0.003 C 
HETATM    8  C   UNL     1      22.958  -1.810  22.382  1.00  0.00     0.049 A 
ENDROOT
BRANCH   8   9
HETATM    9  C   UNL     1      22.677  -1.684  21.018  1.00  0.00     0.255 C 
HETATM   10  O   UNL     1      21.579  -1.769  20.684  1.00  0.00    -0.268 OA
HETATM   11  N   UNL     1      23.792  -1.479  20.358  1.00  0.00    -0.321 N 
ATOM     12  HN  UNL     1      24.690  -1.492  20.841  1.00  0.00     0.169 HD
BRANCH  11  13
HETATM   13  C   UNL     1      23.734  -1.264  19.116  1.00  0.00     0.060 A 
HETATM   14  C   UNL     1      23.518  -0.288  18.246  1.00  0.00     0.117 A 
HETATM   15  N   UNL     1      23.417   0.257  17.186  1.00  0.00    -0.373 N 
HETATM   16  C   UNL     1      23.742  -0.850  16.513  1.00  0.00     0.088 A 
ATOM     17  HN  UNL     1      23.174   1.206  16.903  1.00  0.00     0.164 HD
HETATM   18  C   UNL     1      24.037  -1.907  16.911  1.00  0.00     0.030 A 
HETATM   19  C   UNL     1      24.131  -2.433  18.147  1.00  0.00    -0.016 A 
HETATM   20  C   UNL     1      24.466  -3.548  18.529  1.00  0.00     0.026 C 
ENDBRANCH  11  13
ENDBRANCH   8   9
BRANCH   1  21
HETATM   21  C   UNL     1      24.349  -3.839  23.998  1.00  0.00    -0.022 C 
BRANCH  21  22
HETATM   22  N   UNL     1      24.560  -4.877  24.479  1.00  0.00    -0.249 N 
ATOM     23  HN  UNL     1      25.173  -5.473  23.924  1.00  0.00     0.188 HD
BRANCH  22  24
HETATM   24  S   UNL     1      24.060  -5.559  25.876  1.00  0.00     0.233 S 
HETATM   25  C   UNL     1      25.188  -5.297  26.956  1.00  0.00     0.186 C 
HETATM   26  O   UNL     1      22.842  -4.922  26.315  1.00  0.00    -0.205 OA
HETATM   27  O   UNL     1      23.875  -6.969  25.666  1.00  0.00    -0.205 OA
ENDBRANCH  22  24
ENDBRANCH  21  22
ENDBRANCH   1  21
TORSDOF 5
ENDMDL
MODEL 9
REMARK VINA RESULT:    -6.717      3.563      6.523
REMARK INTER + INTRA:          -9.324
REMARK INTER:                  -8.590
REMARK INTRA:                  -0.734
REMARK UNBOUND:                -0.644
REMARK  5 active torsions:
REMARK  status: ('A' for Active; 'I' for Inactive)
REMARK    1  A    between atoms: S_2  and  N_5 
REMARK    2  A    between atoms: N_5  and  C_7 
REMARK    3  A    between atoms: C_7  and  C_8 
REMARK    4  A    between atoms: C_15  and  C_16 
REMARK       I    between atoms: C_16  and  N_18 
REMARK    5  A    between atoms: N_18  and  C_20 
ROOT
HETATM    1  C   UNL     1       8.015   0.939  21.549  1.00  0.00     0.040 A 
HETATM    2  C   UNL     1       7.167   0.426  20.708  1.00  0.00     0.066 A 
HETATM    3  C   UNL     1       5.601   0.930  20.457  1.00  0.00    -0.003 C 
HETATM    4  C   UNL     1       5.091   0.886  19.461  1.00  0.00    -0.002 C 
HETATM    5  C   UNL     1       5.545   0.527  18.279  1.00  0.00    -0.001 C 
HETATM    6  C   UNL     1       6.950   0.222  18.299  1.00  0.00    -0.002 C 
HETATM    7  C   UNL     1       7.591   0.226  19.153  1.00  0.00    -0.003 C 
HETATM    8  C   UNL     1       7.221  -0.596  21.297  1.00  0.00     0.049 A 
ENDROOT
BRANCH   8   9
HETATM    9  C   UNL     1       7.142  -1.879  21.847  1.00  0.00     0.255 C 
HETATM   10  O   UNL     1       8.117  -2.371  22.211  1.00  0.00    -0.268 OA
HETATM   11  N   UNL     1       5.894  -2.283  21.839  1.00  0.00    -0.321 N 
ATOM     12  HN  UNL     1       5.166  -1.709  21.412  1.00  0.00     0.169 HD
BRANCH  11  13
HETATM   13  C   UNL     1       5.610  -3.393  22.366  1.00  0.00     0.060 A 
HETATM   14  C   UNL     1       5.574  -4.689  22.089  1.00  0.00     0.117 A 
HETATM   15  N   UNL     1       5.424  -5.862  22.268  1.00  0.00    -0.373 N 
HETATM   16  C   UNL     1       5.113  -5.693  23.556  1.00  0.00     0.088 A 
ATOM     17  HN  UNL     1       5.504  -6.681  21.665  1.00  0.00     0.164 HD
HETATM   18  C   UNL     1       5.068  -4.714  24.191  1.00  0.00     0.030 A 
HETATM   19  C   UNL     1       5.264  -3.414  23.897  1.00  0.00    -0.016 A 
HETATM   20  C   UNL     1       5.227  -2.412  24.599  1.00  0.00     0.026 C 
ENDBRANCH  11  13
ENDBRANCH   8   9
BRANCH   1  21
HETATM   21  C   UNL     1       8.732   1.832  21.997  1.00  0.00    -0.022 C 
BRANCH  21  22
HETATM   22  N   UNL     1       9.079   2.888  22.342  1.00  0.00    -0.249 N 
ATOM     23  HN  UNL     1       8.915   3.622  21.653  1.00  0.00     0.188 HD
BRANCH  22  24
HETATM   24  S   UNL     1       9.779   3.415  23.720  1.00  0.00     0.233 S 
HETATM   25  C   UNL     1       9.371   4.934  23.901  1.00  0.00     0.186 C 
HETATM   26  O   UNL     1       9.268   2.661  24.839  1.00  0.00    -0.205 OA
HETATM   27  O   UNL     1      11.205   3.282  23.598  1.00  0.00    -0.205 OA
ENDBRANCH  22  24
ENDBRANCH  21  22
ENDBRANCH   1  21
TORSDOF 5
ENDMDL
