stable:False satoms:4 tatoms:24 sratio:0.16666666666666666
  -OEChem-07092417473D

 24 26  0     1  0  0  0  0  0999 V2000
    6.6803   -4.7791   26.4603 C   0  0  0  0  0  0  0  0  0  0  0  0
    8.1618   -4.3237   26.1389 S   0  0  0  0  0  0  0  0  0  0  0  0
    8.9890   -5.4987   26.0077 O   0  0  0  0  0  0  0  0  0  0  0  0
    8.6546   -3.4400   27.1587 O   0  0  0  0  0  0  0  0  0  0  0  0
    8.1241   -3.5218   24.7166 N   0  0  0  0  0  0  0  0  0  0  0  0
    8.9234   -2.8880   24.1571 C   0  0  0  0  0  0  0  0  0  0  0  0
    9.4350   -1.9567   23.5377 C   0  0  0  0  0  0  0  0  0  0  0  0
   10.3973   -1.1380   23.2346 C   0  0  1  0  0  0  0  0  0  0  0  0
   11.0735    0.0032   24.2409 C   0  0  0  0  0  0  0  0  0  0  0  0
   12.1535    0.2976   24.2019 C   0  0  0  0  0  0  0  0  0  0  0  0
   13.1443   -0.1677   23.4718 C   0  0  0  0  0  0  0  0  0  0  0  0
   12.7508   -1.2904   22.6628 C   0  0  0  0  0  0  0  0  0  0  0  0
   11.7719   -1.7096   22.5878 C   0  0  0  0  0  0  0  0  0  0  0  0
    9.7076   -0.6554   22.4075 C   0  0  3  0  0  0  0  0  0  0  0  0
    9.0606    0.0486   21.3863 C   0  0  0  0  0  0  0  0  0  0  0  0
    9.6122    0.9429   20.9147 O   0  0  0  0  0  0  0  0  0  0  0  0
    7.8867   -0.4904   21.1577 N   0  0  0  0  0  0  0  0  0  0  0  0
    7.1819   -0.0382   20.2145 C   0  0  0  0  0  0  0  0  0  0  0  0
    7.1555    0.0412   18.8924 C   0  0  0  0  0  0  0  0  0  0  0  0
    6.7428    0.3033   17.7999 N   0  0  0  0  0  0  0  0  0  0  0  0
    5.6111    0.8239   18.2812 C   0  0  0  0  0  0  0  0  0  0  0  0
    5.2376    0.9108   19.3839 C   0  0  0  0  0  0  0  0  0  0  0  0
    5.7809    0.5737   20.5700 C   0  0  0  0  0  0  0  0  0  0  0  0
    5.3478    0.6624   21.7118 C   0  0  0  0  0  0  0  0  0  0  0  0
 20 21  2  0  0  0  0
 19 20  1  0  0  0  0
 21 22  1  0  0  0  0
 18 19  2  0  0  0  0
 22 23  2  0  0  0  0
 18 23  1  0  0  0  0
 17 18  1  0  0  0  0
 23 24  1  0  0  0  0
 15 16  2  0  0  0  0
 15 17  1  0  0  0  0
 14 15  1  0  0  0  0
  8 14  1  0  0  0  0
  7 14  1  0  0  0  0
 12 13  1  0  0  0  0
  8 13  1  0  0  0  0
 11 12  2  0  0  0  0
  7  8  1  0  0  0  0
  8  9  1  0  0  0  0
 10 11  1  0  0  0  0
  6  7  2  3  0  0  0
  5  6  1  0  0  0  0
  9 10  2  0  0  0  0
  2  5  1  0  0  0  0
  2  3  2  0  0  0  0
  1  2  1  0  0  0  0
  2  4  2  0  0  0  0
M  END
> <Shapegauss>
-287.401062

$$$$
