stable:False satoms:22 tatoms:24 sratio:0.9166666666666666
  -OEChem-08052419073D

 28 27  0     1  0  0  0  0  0999 V2000
   10.1070    2.2802   23.8383 N   0  0  0  0  0  0  0  0  0  0  0  0
   11.4221    1.8622   23.7284 N   0  0  0  0  0  0  0  0  0  0  0  0
   11.2212    0.0361   22.5573 O   0  0  0  0  0  0  0  0  0  0  0  0
    9.6491    2.2146   22.9526 H   0  0  0  0  0  0  0  0  0  0  0  0
   12.8607    0.6981   25.2400 H   0  0  0  0  0  0  0  0  0  0  0  0
    9.7745    1.7190   24.6094 H   0  0  0  0  0  0  0  0  0  0  0  0
   10.8253   -1.5530   21.4175 H   0  0  0  0  0  0  0  0  0  0  0  0
   11.7187    0.6087   23.5603 C   0  0  3  0  0  0  0  0  0  0  0  0
   11.9748   -1.8896   22.7153 H   0  0  0  0  0  0  0  0  0  0  0  0
   13.5898   -0.3029   23.8755 H   0  0  0  0  0  0  0  0  0  0  0  0
    9.8862   -1.8957   23.2589 C   0  0  3  0  0  0  0  0  0  0  0  0
   12.4560   -0.9719   24.9742 H   0  0  0  0  0  0  0  0  0  0  0  0
   12.7169   -0.0530   24.4728 C   0  0  0  0  0  0  0  0  0  0  0  0
   11.0199   -1.4117   22.4691 C   0  0  0  0  0  0  0  0  0  0  0  0
   10.7929   -1.5045   25.1017 H   0  0  0  0  0  0  0  0  0  0  0  0
    9.8434   -1.5493   24.6214 C   0  0  0  0  0  0  0  0  0  0  0  0
    6.8043   -3.3235   22.6928 H   0  0  0  0  0  0  0  0  0  0  0  0
    8.7337   -2.4871   22.6659 C   0  0  3  0  0  0  0  0  0  0  0  0
    8.9624   -1.2297   25.3622 O   0  0  0  0  0  0  0  0  0  0  0  0
    6.8788   -2.0104   24.2547 C   0  0  0  0  0  0  0  0  0  0  0  0
    6.1051   -2.4582   24.8374 H   0  0  0  0  0  0  0  0  0  0  0  0
    7.4290   -2.6200   23.2058 C   0  0  0  0  0  0  0  0  0  0  0  0
    9.0416   -3.5173   22.4339 H   0  0  0  0  0  0  0  0  0  0  0  0
    7.1547   -1.0104   24.5084 H   0  0  0  0  0  0  0  0  0  0  0  0
   11.8825    2.1522   24.5673 H   0  0  0  0  0  0  0  0  0  0  0  0
   10.8816    0.2910   24.1992 H   0  0  0  0  0  0  0  0  0  0  0  0
   10.3607   -2.8683   23.4560 H   0  0  0  0  0  0  0  0  0  0  0  0
    8.5884   -1.9282   21.7297 H   0  0  0  0  0  0  0  0  0  0  0  0
 20 21  1  0  0  0  0
 17 22  1  0  0  0  0
 20 22  2  0  0  0  0
 20 24  1  0  0  0  0
 18 22  1  0  0  0  0
 16 19  2  0  0  0  0
 18 23  1  0  0  0  0
 11 18  1  0  0  0  0
 15 16  1  0  0  0  0
 11 16  1  0  0  0  0
 11 14  1  0  0  0  0
 12 13  1  0  0  0  0
  9 14  1  0  0  0  0
  7 14  1  0  0  0  0
  3 14  1  0  0  0  0
  5 13  1  0  0  0  0
 10 13  1  0  0  0  0
  8 13  1  0  0  0  0
  1  6  1  0  0  0  0
  3  8  1  0  0  0  0
  2  8  1  0  0  0  0
  1  4  1  0  0  0  0
  1  2  1  0  0  0  0
  2 25  1  0  0  0  0
  8 26  1  0  0  0  0
 11 27  1  0  0  0  0
 18 28  1  0  0  0  0
M  END
> <Chemgauss4>
-5.550247

$$$$
