stable:False satoms:22 tatoms:24 sratio:0.9166666666666666
  -OEChem-08052419073D

 28 27  0     1  0  0  0  0  0999 V2000
  -10.2561    2.1402  -24.0126 N   0  0  0  0  0  0  0  0  0  0  0  0
  -11.5712    1.7222  -23.9026 N   0  0  0  0  0  0  0  0  0  0  0  0
  -11.3704   -0.1038  -22.7315 O   0  0  0  0  0  0  0  0  0  0  0  0
   -9.7982    2.0747  -23.1269 H   0  0  0  0  0  0  0  0  0  0  0  0
  -13.0099    0.5581  -25.4143 H   0  0  0  0  0  0  0  0  0  0  0  0
   -9.9236    1.5790  -24.7837 H   0  0  0  0  0  0  0  0  0  0  0  0
  -10.9744   -1.6929  -21.5918 H   0  0  0  0  0  0  0  0  0  0  0  0
  -11.8679    0.4687  -23.7346 C   0  0  3  0  0  0  0  0  0  0  0  0
  -12.1239   -2.0295  -22.8895 H   0  0  0  0  0  0  0  0  0  0  0  0
  -13.7390   -0.4428  -24.0498 H   0  0  0  0  0  0  0  0  0  0  0  0
  -10.0354   -2.0356  -23.4331 C   0  0  3  0  0  0  0  0  0  0  0  0
  -12.6051   -1.1118  -25.1485 H   0  0  0  0  0  0  0  0  0  0  0  0
  -12.8660   -0.1930  -24.6470 C   0  0  0  0  0  0  0  0  0  0  0  0
  -11.1691   -1.5516  -22.6433 C   0  0  0  0  0  0  0  0  0  0  0  0
  -10.9420   -1.6445  -25.2759 H   0  0  0  0  0  0  0  0  0  0  0  0
   -9.9925   -1.6893  -24.7957 C   0  0  0  0  0  0  0  0  0  0  0  0
   -6.9534   -3.4634  -22.8670 H   0  0  0  0  0  0  0  0  0  0  0  0
   -8.8828   -2.6271  -22.8402 C   0  0  3  0  0  0  0  0  0  0  0  0
   -9.1115   -1.3697  -25.5364 O   0  0  0  0  0  0  0  0  0  0  0  0
   -7.0279   -2.1504  -24.4290 C   0  0  0  0  0  0  0  0  0  0  0  0
   -6.2542   -2.5981  -25.0117 H   0  0  0  0  0  0  0  0  0  0  0  0
   -7.5781   -2.7599  -23.3801 C   0  0  0  0  0  0  0  0  0  0  0  0
   -9.1908   -3.6573  -22.6082 H   0  0  0  0  0  0  0  0  0  0  0  0
   -7.3038   -1.1504  -24.6826 H   0  0  0  0  0  0  0  0  0  0  0  0
  -12.0317    2.0123  -24.7416 H   0  0  0  0  0  0  0  0  0  0  0  0
  -11.0307    0.1510  -24.3735 H   0  0  0  0  0  0  0  0  0  0  0  0
  -10.5099   -3.0083  -23.6303 H   0  0  0  0  0  0  0  0  0  0  0  0
   -8.7376   -2.0681  -21.9040 H   0  0  0  0  0  0  0  0  0  0  0  0
 20 21  1  0  0  0  0
 17 22  1  0  0  0  0
 20 22  2  0  0  0  0
 20 24  1  0  0  0  0
 18 22  1  0  0  0  0
 16 19  2  0  0  0  0
 18 23  1  0  0  0  0
 11 18  1  0  0  0  0
 15 16  1  0  0  0  0
 11 16  1  0  0  0  0
 11 14  1  0  0  0  0
 12 13  1  0  0  0  0
  9 14  1  0  0  0  0
  7 14  1  0  0  0  0
  3 14  1  0  0  0  0
  5 13  1  0  0  0  0
 10 13  1  0  0  0  0
  8 13  1  0  0  0  0
  1  6  1  0  0  0  0
  3  8  1  0  0  0  0
  2  8  1  0  0  0  0
  1  4  1  0  0  0  0
  1  2  1  0  0  0  0
  2 25  1  0  0  0  0
  8 26  1  0  0  0  0
 11 27  1  0  0  0  0
 18 28  1  0  0  0  0
M  END
> <Chemgauss4>
-5.495784

$$$$
