stable:False satoms:16 tatoms:24 sratio:0.6666666666666666
  -OEChem-08062404543D

 30 31  0     1  0  0  0  0  0999 V2000
    7.3504   -4.4255   26.5542 H   0  0  0  0  0  0  0  0  0  0  0  0
    8.3744   -4.0400   26.3855 C   0  0  0  0  0  0  0  0  0  0  0  0
    9.0764   -4.8936   26.4955 H   0  0  0  0  0  0  0  0  0  0  0  0
    8.6228   -3.2908   27.1553 H   0  0  0  0  0  0  0  0  0  0  0  0
    8.4142   -3.4996   25.0791 N   0  3  0  0  0  0  0  0  0  0  0  0
    9.0492   -2.6473   24.5152 C   0  0  0  0  0  0  0  0  0  0  0  0
    9.5841   -1.8347   23.8680 C   0  0  0  0  0  0  0  0  0  0  0  0
   10.4942   -1.0039   23.3170 C   0  0  3  0  0  0  0  0  0  0  0  0
   11.7783    0.7676   24.4994 H   0  0  0  0  0  0  0  0  0  0  0  0
   12.5735    0.1006   24.1282 C   0  0  0  0  0  0  0  0  0  0  0  0
   13.5251    0.5963   24.0309 H   0  0  0  0  0  0  0  0  0  0  0  0
   12.9783   -1.3387   23.8421 O   0  0  0  0  0  0  0  0  0  0  0  0
   11.9085   -1.0709   23.6636 C   0  0  3  0  0  0  0  0  0  0  0  0
   10.2727   -0.1162   22.5114 N   0  0  0  0  0  0  0  0  0  0  0  0
    9.5060    0.2373   21.4729 C   0  0  0  0  0  0  0  0  0  0  0  0
    9.9447    1.1697   20.8496 O   0  0  0  0  0  0  0  0  0  0  0  0
    8.3140   -0.4165   21.2614 N   0  0  0  0  0  0  0  0  0  0  0  0
    7.7081   -0.1529   20.0892 C   0  0  0  0  0  0  0  0  0  0  0  0
    8.2740   -0.1742   18.8233 O   0  0  0  0  0  0  0  0  0  0  0  0
    7.3715    0.1197   17.8554 N   0  0  0  0  0  0  0  0  0  0  0  0
    6.2727    0.3721   18.5277 C   0  0  0  0  0  0  0  0  0  0  0  0
    5.3694    0.6915   18.0973 H   0  0  0  0  0  0  0  0  0  0  0  0
    6.4082    0.1862   19.9713 C   0  0  0  0  0  0  0  0  0  0  0  0
    5.7038    0.3192   20.8025 H   0  0  0  0  0  0  0  0  0  0  0  0
    7.4719   -3.1938   24.9424 H   0  0  0  0  0  0  0  0  0  0  0  0
   10.6564   -1.7173   22.4956 H   0  0  0  0  0  0  0  0  0  0  0  0
   11.6527   -1.3482   24.6969 H   0  0  0  0  0  0  0  0  0  0  0  0
   10.9058    0.6350   22.6978 H   0  0  0  0  0  0  0  0  0  0  0  0
    7.9240   -1.0455   21.9339 H   0  0  0  0  0  0  0  0  0  0  0  0
    8.5876   -4.3074   24.5157 H   0  0  0  0  0  0  0  0  0  0  0  0
 20 21  2  0  0  0  0
 19 20  1  0  0  0  0
 21 22  1  0  0  0  0
 21 23  1  0  0  0  0
 18 19  1  0  0  0  0
 18 23  2  0  0  0  0
 17 18  1  0  0  0  0
 23 24  1  0  0  0  0
 15 16  2  0  0  0  0
 15 17  1  0  0  0  0
 14 15  1  0  0  0  0
  8 14  1  0  0  0  0
  8 13  1  0  0  0  0
  7  8  1  0  0  0  0
 12 13  1  0  0  0  0
 10 13  1  0  0  0  0
 10 12  1  0  0  0  0
 10 11  1  0  0  0  0
  6  7  3  0  0  0  0
  9 10  1  0  0  0  0
  5  6  1  0  0  0  0
  2  5  1  0  0  0  0
  2  3  1  0  0  0  0
  1  2  1  0  0  0  0
  2  4  1  0  0  0  0
  5 25  1  0  0  0  0
  8 26  1  0  0  0  0
 13 27  1  0  0  0  0
 14 28  1  0  0  0  0
 17 29  1  0  0  0  0
  5 30  1  0  0  0  0
M  CHG  1   5   1
M  END
> <Chemgauss4>
-8.573251

$$$$
