stable:False satoms:16 tatoms:24 sratio:0.6666666666666666
  -OEChem-08062404543D

 30 31  0     1  0  0  0  0  0999 V2000
   -7.2330   -4.2948  -26.8205 H   0  0  0  0  0  0  0  0  0  0  0  0
   -8.2570   -3.9093  -26.6518 C   0  0  0  0  0  0  0  0  0  0  0  0
   -8.9590   -4.7630  -26.7619 H   0  0  0  0  0  0  0  0  0  0  0  0
   -8.5054   -3.1601  -27.4217 H   0  0  0  0  0  0  0  0  0  0  0  0
   -8.2968   -3.3689  -25.3454 N   0  3  0  0  0  0  0  0  0  0  0  0
   -8.9318   -2.5166  -24.7815 C   0  0  0  0  0  0  0  0  0  0  0  0
   -9.4667   -1.7041  -24.1343 C   0  0  0  0  0  0  0  0  0  0  0  0
  -10.3767   -0.8732  -23.5833 C   0  0  3  0  0  0  0  0  0  0  0  0
  -11.6609    0.8983  -24.7658 H   0  0  0  0  0  0  0  0  0  0  0  0
  -12.4560    0.2312  -24.3945 C   0  0  0  0  0  0  0  0  0  0  0  0
  -13.4077    0.7269  -24.2972 H   0  0  0  0  0  0  0  0  0  0  0  0
  -12.8609   -1.2081  -24.1084 O   0  0  0  0  0  0  0  0  0  0  0  0
  -11.7911   -0.9402  -23.9300 C   0  0  3  0  0  0  0  0  0  0  0  0
  -10.1553    0.0144  -22.7778 N   0  0  0  0  0  0  0  0  0  0  0  0
   -9.3886    0.3680  -21.7392 C   0  0  0  0  0  0  0  0  0  0  0  0
   -9.8273    1.3004  -21.1160 O   0  0  0  0  0  0  0  0  0  0  0  0
   -8.1966   -0.2859  -21.5277 N   0  0  0  0  0  0  0  0  0  0  0  0
   -7.5907   -0.0223  -20.3556 C   0  0  0  0  0  0  0  0  0  0  0  0
   -8.1566   -0.0435  -19.0897 O   0  0  0  0  0  0  0  0  0  0  0  0
   -7.2541    0.2504  -18.1217 N   0  0  0  0  0  0  0  0  0  0  0  0
   -6.1553    0.5028  -18.7941 C   0  0  0  0  0  0  0  0  0  0  0  0
   -5.2520    0.8222  -18.3636 H   0  0  0  0  0  0  0  0  0  0  0  0
   -6.2908    0.3168  -20.2377 C   0  0  0  0  0  0  0  0  0  0  0  0
   -5.5864    0.4498  -21.0688 H   0  0  0  0  0  0  0  0  0  0  0  0
   -7.3545   -3.0631  -25.2087 H   0  0  0  0  0  0  0  0  0  0  0  0
  -10.5390   -1.5867  -22.7619 H   0  0  0  0  0  0  0  0  0  0  0  0
  -11.5353   -1.2175  -24.9633 H   0  0  0  0  0  0  0  0  0  0  0  0
  -10.7884    0.7657  -22.9642 H   0  0  0  0  0  0  0  0  0  0  0  0
   -7.8066   -0.9149  -22.2002 H   0  0  0  0  0  0  0  0  0  0  0  0
   -8.4701   -4.1767  -24.7820 H   0  0  0  0  0  0  0  0  0  0  0  0
 20 21  2  0  0  0  0
 19 20  1  0  0  0  0
 21 22  1  0  0  0  0
 21 23  1  0  0  0  0
 18 19  1  0  0  0  0
 18 23  2  0  0  0  0
 17 18  1  0  0  0  0
 23 24  1  0  0  0  0
 15 16  2  0  0  0  0
 15 17  1  0  0  0  0
 14 15  1  0  0  0  0
  8 14  1  0  0  0  0
  8 13  1  0  0  0  0
  7  8  1  0  0  0  0
 12 13  1  0  0  0  0
 10 13  1  0  0  0  0
 10 12  1  0  0  0  0
 10 11  1  0  0  0  0
  6  7  3  0  0  0  0
  9 10  1  0  0  0  0
  5  6  1  0  0  0  0
  2  5  1  0  0  0  0
  2  3  1  0  0  0  0
  1  2  1  0  0  0  0
  2  4  1  0  0  0  0
  5 25  1  0  0  0  0
  8 26  1  0  0  0  0
 13 27  1  0  0  0  0
 14 28  1  0  0  0  0
 17 29  1  0  0  0  0
  5 30  1  0  0  0  0
M  CHG  1   5   1
M  END
> <Chemgauss4>
-8.489343

$$$$
