stable:False satoms:19 tatoms:24 sratio:0.7916666666666666
  -OEChem-07092417393D

 24 25  0     0  0  0  0  0  0999 V2000
    7.0041   -4.6132   26.1604 H   0  0  0  0  0  0  0  0  0  0  0  0
    8.0939   -4.3275   26.0146 C   0  0  0  0  0  0  0  0  0  0  0  0
    8.7136   -5.3244   25.9903 H   0  0  0  0  0  0  0  0  0  0  0  0
    8.4570   -3.6970   27.1695 F   0  0  0  0  0  0  0  0  0  0  0  0
    8.1392   -3.5407   24.8609 N   0  0  0  0  0  0  0  0  0  0  0  0
    8.8809   -2.8236   24.4172 C   0  0  0  0  0  0  0  0  0  0  0  0
    9.1329   -2.0569   23.4758 O   0  0  0  0  0  0  0  0  0  0  0  0
   11.2413   -1.0043   23.9108 C   0  0  0  0  0  0  0  0  0  0  0  0
   10.0956   -1.6504   24.0028 C   0  0  0  0  0  0  0  0  0  0  0  0
   12.1152   -0.4392   24.5618 O   0  0  0  0  0  0  0  0  0  0  0  0
   13.3499   -0.2374   23.3135 O   0  0  0  0  0  0  0  0  0  0  0  0
   12.7179   -0.6809   22.3505 N   0  0  0  0  0  0  0  0  0  0  0  0
   11.3146   -0.8424   22.6243 C   0  0  0  0  0  0  0  0  0  0  0  0
   10.1372   -0.7519   22.1014 N   0  0  0  0  0  0  0  0  0  0  0  0
    9.2787    0.0067   21.3835 C   0  0  0  0  0  0  0  0  0  0  0  0
    9.6543    1.0232   20.8686 O   0  0  0  0  0  0  0  0  0  0  0  0
    7.9769   -0.4681   21.2823 N   0  0  0  0  0  0  0  0  0  0  0  0
    7.3489   -0.0445   20.2184 C   0  3  0  0  0  0  0  0  0  0  0  0
    7.8825   -0.1173   19.2672 H   0  0  0  0  0  0  0  0  0  0  0  0
    6.1333    0.6856   18.0636 H   0  0  0  0  0  0  0  0  0  0  0  0
    5.6080    0.9195   18.9901 C   0  0  0  0  0  0  0  0  0  0  0  0
    4.7126    1.4930   18.9434 H   0  0  0  0  0  0  0  0  0  0  0  0
    6.0702    0.5281   20.1951 C   0  0  0  0  0  0  0  0  0  0  0  0
    5.5255    0.6734   21.1307 H   0  0  0  0  0  0  0  0  0  0  0  0
 20 21  1  0  0  0  0
 21 22  1  0  0  0  0
 21 23  2  0  0  0  0
 18 19  1  0  0  0  0
 18 23  1  0  0  0  0
 23 24  1  0  0  0  0
 17 18  1  0  0  0  0
 15 16  2  0  0  0  0
 15 17  1  0  0  0  0
 14 15  1  0  0  0  0
 13 14  1  0  0  0  0
 12 13  1  0  0  0  0
 11 12  1  0  0  0  0
  8 13  2  0  0  0  0
 10 11  1  0  0  0  0
  7  9  1  0  0  0  0
  6  7  1  0  0  0  0
  8  9  1  0  0  0  0
  8 10  1  0  0  0  0
  6  9  2  0  0  0  0
  5  6  1  0  0  0  0
  2  5  1  0  0  0  0
  2  3  1  0  0  0  0
  1  2  1  0  0  0  0
  2  4  1  0  0  0  0
M  CHG  1  18   1
M  END
> <Shapegauss>
-193.666306

$$$$
