MODEL 1
REMARK VINA RESULT:    -5.660      0.000      0.000
REMARK INTER + INTRA:          -7.726
REMARK INTER:                  -7.315
REMARK INTRA:                  -0.411
REMARK UNBOUND:                -0.411
REMARK  5 active torsions:
REMARK  status: ('A' for Active; 'I' for Inactive)
REMARK    1  A    between atoms: C_1  and  N_3 
REMARK    2  A    between atoms: N_3  and  C_5 
REMARK    3  A    between atoms: C_7  and  C_8 
REMARK    4  A    between atoms: C_13  and  N_14 
REMARK       I    between atoms: N_14  and  C_16 
REMARK       I    between atoms: C_16  and  N_18 
REMARK    5  A    between atoms: C_20  and  C_22 
ROOT
HETATM    1  C   UNL     1       6.330  -3.366  22.050  1.00  0.00     0.193 C 
HETATM    2  O   UNL     1       5.617  -3.827  21.163  1.00  0.00    -0.167 OA
HETATM    3  O   UNL     1       5.248  -2.352  20.263  1.00  0.00    -0.105 OA
HETATM    4  N   UNL     1       5.953  -1.563  20.899  1.00  0.00    -0.215 N 
ATOM      5  HN  UNL     1       5.884  -0.549  20.808  1.00  0.00     0.199 HD
HETATM    6  C   UNL     1       6.879  -2.220  21.781  1.00  0.00     0.172 C 
ENDROOT
BRANCH   6   7
HETATM    7  N   UNL     1       8.071  -2.152  22.276  1.00  0.00    -0.291 N 
HETATM    8  C   UNL     1       9.269  -1.527  22.243  1.00  0.00     0.325 C 
HETATM    9  O   UNL     1       9.418  -0.536  21.583  1.00  0.00    -0.247 OA
HETATM   10  N   UNL     1      10.278  -2.093  23.013  1.00  0.00    -0.319 N 
HETATM   11  C   UNL     1      11.198  -1.240  23.375  1.00  0.00     0.092 C 
ATOM     12  HN  UNL     1      10.297  -3.080  23.271  1.00  0.00     0.170 HD
ATOM     13  HN  UNL     1       8.134  -2.873  22.994  1.00  0.00     0.172 HD
BRANCH  11  14
HETATM   14  C   UNL     1      12.581  -1.421  23.243  1.00  0.00     0.007 C 
HETATM   15  C   UNL     1      13.365  -0.674  24.047  1.00  0.00     0.012 C 
ENDBRANCH  11  14
ENDBRANCH   6   7
BRANCH   1  16
HETATM   16  C   UNL     1       6.911  -3.644  23.200  1.00  0.00     0.169 A 
HETATM   17  C   UNL     1       7.753  -4.473  24.477  1.00  0.00     0.183 A 
HETATM   18  O   UNL     1       6.893  -3.586  24.369  1.00  0.00    -0.284 OA
BRANCH  17  19
HETATM   19  N   UNL     1       8.431  -5.032  25.176  1.00  0.00    -0.343 N 
ATOM     20  HN  UNL     1       9.102  -5.620  24.682  1.00  0.00     0.164 HD
BRANCH  19  21
HETATM   21  C   UNL     1       8.571  -5.110  26.564  1.00  0.00     0.347 C 
HETATM   22  F   UNL     1       7.477  -4.736  27.287  1.00  0.00    -0.234 F 
ENDBRANCH  19  21
ENDBRANCH  17  19
ENDBRANCH   1  16
TORSDOF 5
ENDMDL
MODEL 2
REMARK VINA RESULT:    -5.536      3.851      6.445
REMARK INTER + INTRA:          -7.566
REMARK INTER:                  -7.178
REMARK INTRA:                  -0.388
REMARK UNBOUND:                -0.411
REMARK  5 active torsions:
REMARK  status: ('A' for Active; 'I' for Inactive)
REMARK    1  A    between atoms: C_1  and  N_3 
REMARK    2  A    between atoms: N_3  and  C_5 
REMARK    3  A    between atoms: C_7  and  C_8 
REMARK    4  A    between atoms: C_13  and  N_14 
REMARK       I    between atoms: N_14  and  C_16 
REMARK       I    between atoms: C_16  and  N_18 
REMARK    5  A    between atoms: C_20  and  C_22 
ROOT
HETATM    1  C   UNL     1       9.393   0.845  21.666  1.00  0.00     0.193 C 
HETATM    2  O   UNL     1      10.419   1.492  21.476  1.00  0.00    -0.167 OA
HETATM    3  O   UNL     1      11.108   1.467  23.103  1.00  0.00    -0.105 OA
HETATM    4  N   UNL     1      10.276   0.735  23.648  1.00  0.00    -0.215 N 
ATOM      5  HN  UNL     1      10.210   0.614  24.659  1.00  0.00     0.199 HD
HETATM    6  C   UNL     1       9.409   0.073  22.711  1.00  0.00     0.172 C 
ENDROOT
BRANCH   6   7
HETATM    7  N   UNL     1       8.775  -1.029  22.481  1.00  0.00    -0.291 N 
HETATM    8  C   UNL     1       8.674  -2.348  22.757  1.00  0.00     0.325 C 
HETATM    9  O   UNL     1       9.328  -2.835  23.636  1.00  0.00    -0.247 OA
HETATM   10  N   UNL     1       7.777  -3.071  21.980  1.00  0.00    -0.319 N 
HETATM   11  C   UNL     1       7.321  -4.143  22.570  1.00  0.00     0.092 C 
ATOM     12  HN  UNL     1       7.501  -2.791  21.038  1.00  0.00     0.170 HD
ATOM     13  HN  UNL     1       8.041  -0.811  21.806  1.00  0.00     0.172 HD
BRANCH  11  14
HETATM   14  C   UNL     1       7.282  -5.430  22.017  1.00  0.00     0.007 C 
HETATM   15  C   UNL     1       6.221  -5.715  21.234  1.00  0.00     0.012 C 
ENDBRANCH  11  14
ENDBRANCH   6   7
BRANCH   1  16
HETATM   16  C   UNL     1       8.243   0.492  21.128  1.00  0.00     0.169 A 
HETATM   17  C   UNL     1       7.020   0.027  19.981  1.00  0.00     0.183 A 
HETATM   18  O   UNL     1       7.085   0.646  21.054  1.00  0.00    -0.284 OA
BRANCH  17  19
HETATM   19  N   UNL     1       6.345  -0.414  19.200  1.00  0.00    -0.343 N 
ATOM     20  HN  UNL     1       6.144  -1.400  19.369  1.00  0.00     0.164 HD
BRANCH  19  21
HETATM   21  C   UNL     1       5.715   0.070  18.051  1.00  0.00     0.347 C 
HETATM   22  F   UNL     1       6.028   1.352  17.706  1.00  0.00    -0.234 F 
ENDBRANCH  19  21
ENDBRANCH  17  19
ENDBRANCH   1  16
TORSDOF 5
ENDMDL
MODEL 3
REMARK VINA RESULT:    -5.508      2.409      4.796
REMARK INTER + INTRA:          -7.530
REMARK INTER:                  -6.990
REMARK INTRA:                  -0.540
REMARK UNBOUND:                -0.411
REMARK  5 active torsions:
REMARK  status: ('A' for Active; 'I' for Inactive)
REMARK    1  A    between atoms: C_1  and  N_3 
REMARK    2  A    between atoms: N_3  and  C_5 
REMARK    3  A    between atoms: C_7  and  C_8 
REMARK    4  A    between atoms: C_13  and  N_14 
REMARK       I    between atoms: N_14  and  C_16 
REMARK       I    between atoms: C_16  and  N_18 
REMARK    5  A    between atoms: C_20  and  C_22 
ROOT
HETATM    1  C   UNL     1       6.639   0.837  20.418  1.00  0.00     0.193 C 
HETATM    2  O   UNL     1       5.967   1.862  20.345  1.00  0.00    -0.167 OA
HETATM    3  O   UNL     1       4.550   1.243  19.489  1.00  0.00    -0.105 OA
HETATM    4  N   UNL     1       4.864   0.050  19.444  1.00  0.00    -0.215 N 
ATOM      5  HN  UNL     1       4.385  -0.636  18.860  1.00  0.00     0.199 HD
HETATM    6  C   UNL     1       5.974  -0.273  20.300  1.00  0.00     0.172 C 
ENDROOT
BRANCH   6   7
HETATM    7  N   UNL     1       6.459  -1.187  21.073  1.00  0.00    -0.291 N 
HETATM    8  C   UNL     1       6.323  -2.443  21.554  1.00  0.00     0.325 C 
HETATM    9  O   UNL     1       5.494  -3.179  21.098  1.00  0.00    -0.247 OA
HETATM   10  N   UNL     1       7.194  -2.807  22.574  1.00  0.00    -0.319 N 
HETATM   11  C   UNL     1       7.401  -4.095  22.647  1.00  0.00     0.092 C 
ATOM     12  HN  UNL     1       7.628  -2.134  23.204  1.00  0.00     0.170 HD
ATOM     13  HN  UNL     1       7.298  -0.796  21.501  1.00  0.00     0.172 HD
BRANCH  11  14
HETATM   14  C   UNL     1       7.318  -4.874  23.808  1.00  0.00     0.007 C 
HETATM   15  C   UNL     1       8.320  -4.734  24.699  1.00  0.00     0.012 C 
ENDBRANCH  11  14
ENDBRANCH   6   7
BRANCH   1  16
HETATM   16  C   UNL     1       7.832   0.367  20.721  1.00  0.00     0.169 A 
HETATM   17  C   UNL     1       9.319   0.026  21.557  1.00  0.00     0.183 A 
HETATM   18  O   UNL     1       8.929   0.135  20.385  1.00  0.00    -0.284 OA
BRANCH  17  19
HETATM   19  N   UNL     1      10.169  -0.259  22.234  1.00  0.00    -0.343 N 
ATOM     20  HN  UNL     1      10.731   0.544  22.514  1.00  0.00     0.164 HD
BRANCH  19  21
HETATM   21  C   UNL     1      10.637  -1.456  22.781  1.00  0.00     0.347 C 
HETATM   22  F   UNL     1       9.997  -1.876  23.909  1.00  0.00    -0.234 F 
ENDBRANCH  19  21
ENDBRANCH  17  19
ENDBRANCH   1  16
TORSDOF 5
ENDMDL
MODEL 4
REMARK VINA RESULT:    -5.438     26.757     28.556
REMARK INTER + INTRA:          -7.439
REMARK INTER:                  -6.883
REMARK INTRA:                  -0.556
REMARK UNBOUND:                -0.411
REMARK  5 active torsions:
REMARK  status: ('A' for Active; 'I' for Inactive)
REMARK    1  A    between atoms: C_1  and  N_3 
REMARK    2  A    between atoms: N_3  and  C_5 
REMARK    3  A    between atoms: C_7  and  C_8 
REMARK    4  A    between atoms: C_13  and  N_14 
REMARK       I    between atoms: N_14  and  C_16 
REMARK       I    between atoms: C_16  and  N_18 
REMARK    5  A    between atoms: C_20  and  C_22 
ROOT
HETATM    1  C   UNL     1      10.605  16.497   5.556  1.00  0.00     0.193 C 
HETATM    2  O   UNL     1      10.278  16.463   6.738  1.00  0.00    -0.167 OA
HETATM    3  O   UNL     1      11.189  17.848   7.353  1.00  0.00    -0.105 OA
HETATM    4  N   UNL     1      11.659  18.252   6.285  1.00  0.00    -0.215 N 
ATOM      5  HN  UNL     1      12.405  18.945   6.226  1.00  0.00     0.199 HD
HETATM    6  C   UNL     1      11.046  17.645   5.134  1.00  0.00     0.172 C 
ENDROOT
BRANCH   6   7
HETATM    7  N   UNL     1      10.665  17.868   3.920  1.00  0.00    -0.291 N 
HETATM    8  C   UNL     1      10.139  18.759   3.051  1.00  0.00     0.325 C 
HETATM    9  O   UNL     1       9.984  19.903   3.376  1.00  0.00    -0.247 OA
HETATM   10  N   UNL     1       9.814  18.270   1.792  1.00  0.00    -0.319 N 
HETATM   11  C   UNL     1       9.817  19.186   0.860  1.00  0.00     0.092 C 
ATOM     12  HN  UNL     1       9.593  17.291   1.613  1.00  0.00     0.170 HD
ATOM     13  HN  UNL     1      10.833  17.009   3.396  1.00  0.00     0.172 HD
BRANCH  11  14
HETATM   14  C   UNL     1       8.795  19.411  -0.072  1.00  0.00     0.007 C 
HETATM   15  C   UNL     1       7.595  18.865   0.210  1.00  0.00     0.012 C 
ENDBRANCH  11  14
ENDBRANCH   6   7
BRANCH   1  16
HETATM   16  C   UNL     1      10.567  15.827   4.422  1.00  0.00     0.169 A 
HETATM   17  C   UNL     1      10.034  14.828   3.101  1.00  0.00     0.183 A 
HETATM   18  O   UNL     1      11.101  15.110   3.666  1.00  0.00    -0.284 OA
BRANCH  17  19
HETATM   19  N   UNL     1       9.550  14.305   2.233  1.00  0.00    -0.343 N 
ATOM     20  HN  UNL     1      10.059  13.468   1.949  1.00  0.00     0.164 HD
BRANCH  19  21
HETATM   21  C   UNL     1       8.414  14.531   1.452  1.00  0.00     0.347 C 
HETATM   22  F   UNL     1       7.827  15.753   1.610  1.00  0.00    -0.234 F 
ENDBRANCH  19  21
ENDBRANCH  17  19
ENDBRANCH   1  16
TORSDOF 5
ENDMDL
MODEL 5
REMARK VINA RESULT:    -5.419      3.432      5.714
REMARK INTER + INTRA:          -7.414
REMARK INTER:                  -7.015
REMARK INTRA:                  -0.399
REMARK UNBOUND:                -0.411
REMARK  5 active torsions:
REMARK  status: ('A' for Active; 'I' for Inactive)
REMARK    1  A    between atoms: C_1  and  N_3 
REMARK    2  A    between atoms: N_3  and  C_5 
REMARK    3  A    between atoms: C_7  and  C_8 
REMARK    4  A    between atoms: C_13  and  N_14 
REMARK       I    between atoms: N_14  and  C_16 
REMARK       I    between atoms: C_16  and  N_18 
REMARK    5  A    between atoms: C_20  and  C_22 
ROOT
HETATM    1  C   UNL     1       6.706   0.391  19.269  1.00  0.00     0.193 C 
HETATM    2  O   UNL     1       6.179   1.142  18.453  1.00  0.00    -0.167 OA
HETATM    3  O   UNL     1       5.346  -0.039  17.436  1.00  0.00    -0.105 OA
HETATM    4  N   UNL     1       5.613  -1.060  18.077  1.00  0.00    -0.215 N 
ATOM      5  HN  UNL     1       5.464  -2.003  17.718  1.00  0.00     0.199 HD
HETATM    6  C   UNL     1       6.157  -0.782  19.379  1.00  0.00     0.172 C 
ENDROOT
BRANCH   6   7
HETATM    7  N   UNL     1       6.182  -1.190  20.604  1.00  0.00    -0.291 N 
HETATM    8  C   UNL     1       5.916  -2.204  21.458  1.00  0.00     0.325 C 
HETATM    9  O   UNL     1       5.596  -3.281  21.039  1.00  0.00    -0.247 OA
HETATM   10  N   UNL     1       6.049  -1.917  22.811  1.00  0.00    -0.319 N 
HETATM   11  C   UNL     1       6.302  -2.967  23.545  1.00  0.00     0.092 C 
ATOM     12  HN  UNL     1       5.956  -0.976  23.195  1.00  0.00     0.170 HD
ATOM     13  HN  UNL     1       6.562  -0.426  21.162  1.00  0.00     0.172 HD
BRANCH  11  14
HETATM   14  C   UNL     1       5.628  -3.329  24.719  1.00  0.00     0.007 C 
HETATM   15  C   UNL     1       4.717  -4.316  24.609  1.00  0.00     0.012 C 
ENDBRANCH  11  14
ENDBRANCH   6   7
BRANCH   1  16
HETATM   16  C   UNL     1       7.589   0.332  20.245  1.00  0.00     0.169 A 
HETATM   17  C   UNL     1       8.516   0.702  21.670  1.00  0.00     0.183 A 
HETATM   18  O   UNL     1       8.690   0.126  20.586  1.00  0.00    -0.284 OA
BRANCH  17  19
HETATM   19  N   UNL     1       8.950   0.941  22.678  1.00  0.00    -0.343 N 
ATOM     20  HN  UNL     1       8.635   0.296  23.402  1.00  0.00     0.164 HD
BRANCH  19  21
HETATM   21  C   UNL     1       9.821   1.916  23.172  1.00  0.00     0.347 C 
HETATM   22  F   UNL     1      11.098   1.856  22.699  1.00  0.00    -0.234 F 
ENDBRANCH  19  21
ENDBRANCH  17  19
ENDBRANCH   1  16
TORSDOF 5
ENDMDL
MODEL 6
REMARK VINA RESULT:    -5.310     14.118     16.563
REMARK INTER + INTRA:          -7.274
REMARK INTER:                  -6.819
REMARK INTRA:                  -0.455
REMARK UNBOUND:                -0.411
REMARK  5 active torsions:
REMARK  status: ('A' for Active; 'I' for Inactive)
REMARK    1  A    between atoms: C_1  and  N_3 
REMARK    2  A    between atoms: N_3  and  C_5 
REMARK    3  A    between atoms: C_7  and  C_8 
REMARK    4  A    between atoms: C_13  and  N_14 
REMARK       I    between atoms: N_14  and  C_16 
REMARK       I    between atoms: C_16  and  N_18 
REMARK    5  A    between atoms: C_20  and  C_22 
ROOT
HETATM    1  C   UNL     1      25.212  -4.469  27.807  1.00  0.00     0.193 C 
HETATM    2  O   UNL     1      26.323  -4.973  27.672  1.00  0.00    -0.167 OA
HETATM    3  O   UNL     1      25.873  -6.532  26.971  1.00  0.00    -0.105 OA
HETATM    4  N   UNL     1      24.657  -6.346  26.866  1.00  0.00    -0.215 N 
ATOM      5  HN  UNL     1      23.990  -7.092  26.664  1.00  0.00     0.199 HD
HETATM    6  C   UNL     1      24.279  -4.972  27.056  1.00  0.00     0.172 C 
ENDROOT
BRANCH   6   7
HETATM    7  N   UNL     1      23.459  -4.055  26.660  1.00  0.00    -0.291 N 
HETATM    8  C   UNL     1      22.842  -3.476  25.607  1.00  0.00     0.325 C 
HETATM    9  O   UNL     1      22.921  -3.965  24.514  1.00  0.00    -0.247 OA
HETATM   10  N   UNL     1      22.123  -2.318  25.877  1.00  0.00    -0.319 N 
HETATM   11  C   UNL     1      21.158  -2.092  25.025  1.00  0.00     0.092 C 
ATOM     12  HN  UNL     1      22.328  -1.704  26.665  1.00  0.00     0.170 HD
ATOM     13  HN  UNL     1      23.147  -3.559  27.495  1.00  0.00     0.172 HD
BRANCH  11  14
HETATM   14  C   UNL     1      20.918  -0.881  24.362  1.00  0.00     0.007 C 
HETATM   15  C   UNL     1      21.673   0.170  24.738  1.00  0.00     0.012 C 
ENDBRANCH  11  14
ENDBRANCH   6   7
BRANCH   1  16
HETATM   16  C   UNL     1      24.560  -3.461  28.352  1.00  0.00     0.169 A 
HETATM   17  C   UNL     1      24.129  -1.872  28.912  1.00  0.00     0.183 A 
HETATM   18  O   UNL     1      23.921  -3.049  29.242  1.00  0.00    -0.284 OA
BRANCH  17  19
HETATM   19  N   UNL     1      23.872  -0.794  29.095  1.00  0.00    -0.343 N 
ATOM     20  HN  UNL     1      23.218  -0.674  29.868  1.00  0.00     0.164 HD
BRANCH  19  21
HETATM   21  C   UNL     1      24.239   0.422  28.513  1.00  0.00     0.347 C 
HETATM   22  F   UNL     1      23.533   0.778  27.402  1.00  0.00    -0.234 F 
ENDBRANCH  19  21
ENDBRANCH  17  19
ENDBRANCH   1  16
TORSDOF 5
ENDMDL
MODEL 7
REMARK VINA RESULT:    -5.262      2.901      5.248
REMARK INTER + INTRA:          -7.212
REMARK INTER:                  -6.889
REMARK INTRA:                  -0.323
REMARK UNBOUND:                -0.411
REMARK  5 active torsions:
REMARK  status: ('A' for Active; 'I' for Inactive)
REMARK    1  A    between atoms: C_1  and  N_3 
REMARK    2  A    between atoms: N_3  and  C_5 
REMARK    3  A    between atoms: C_7  and  C_8 
REMARK    4  A    between atoms: C_13  and  N_14 
REMARK       I    between atoms: N_14  and  C_16 
REMARK       I    between atoms: C_16  and  N_18 
REMARK    5  A    between atoms: C_20  and  C_22 
ROOT
HETATM    1  C   UNL     1       8.012  -4.034  23.923  1.00  0.00     0.193 C 
HETATM    2  O   UNL     1       8.036  -5.236  24.168  1.00  0.00    -0.167 OA
HETATM    3  O   UNL     1       6.388  -5.464  24.766  1.00  0.00    -0.105 OA
HETATM    4  N   UNL     1       5.959  -4.323  24.574  1.00  0.00    -0.215 N 
ATOM      5  HN  UNL     1       5.079  -3.981  24.960  1.00  0.00     0.199 HD
HETATM    6  C   UNL     1       6.828  -3.525  23.751  1.00  0.00     0.172 C 
ENDROOT
BRANCH   6   7
HETATM    7  N   UNL     1       6.845  -2.615  22.835  1.00  0.00    -0.291 N 
HETATM    8  C   UNL     1       6.408  -2.239  21.613  1.00  0.00     0.325 C 
HETATM    9  O   UNL     1       5.569  -2.883  21.045  1.00  0.00    -0.247 OA
HETATM   10  N   UNL     1       6.973  -1.084  21.086  1.00  0.00    -0.319 N 
HETATM   11  C   UNL     1       6.208  -0.478  20.218  1.00  0.00     0.092 C 
ATOM     12  HN  UNL     1       7.897  -0.744  21.351  1.00  0.00     0.170 HD
ATOM     13  HN  UNL     1       7.441  -1.861  23.180  1.00  0.00     0.172 HD
BRANCH  11  14
HETATM   14  C   UNL     1       6.600  -0.042  18.945  1.00  0.00     0.007 C 
HETATM   15  C   UNL     1       5.612   0.346  18.112  1.00  0.00     0.012 C 
ENDBRANCH  11  14
ENDBRANCH   6   7
BRANCH   1  16
HETATM   16  C   UNL     1       8.762  -2.996  23.613  1.00  0.00     0.169 A 
HETATM   17  C   UNL     1       9.919  -1.958  22.830  1.00  0.00     0.183 A 
HETATM   18  O   UNL     1       9.455  -2.121  23.968  1.00  0.00    -0.284 OA
BRANCH  17  19
HETATM   19  N   UNL     1      10.565  -1.319  22.170  1.00  0.00    -0.343 N 
ATOM     20  HN  UNL     1      11.265  -1.862  21.665  1.00  0.00     0.164 HD
BRANCH  19  21
HETATM   21  C   UNL     1      10.634   0.046  21.879  1.00  0.00     0.347 C 
HETATM   22  F   UNL     1       9.697   0.507  21.001  1.00  0.00    -0.234 F 
ENDBRANCH  19  21
ENDBRANCH  17  19
ENDBRANCH   1  16
TORSDOF 5
ENDMDL
MODEL 8
REMARK VINA RESULT:    -5.165      3.954      4.796
REMARK INTER + INTRA:          -7.086
REMARK INTER:                  -6.577
REMARK INTRA:                  -0.509
REMARK UNBOUND:                -0.411
REMARK  5 active torsions:
REMARK  status: ('A' for Active; 'I' for Inactive)
REMARK    1  A    between atoms: C_1  and  N_3 
REMARK    2  A    between atoms: N_3  and  C_5 
REMARK    3  A    between atoms: C_7  and  C_8 
REMARK    4  A    between atoms: C_13  and  N_14 
REMARK       I    between atoms: N_14  and  C_16 
REMARK       I    between atoms: C_16  and  N_18 
REMARK    5  A    between atoms: C_20  and  C_22 
ROOT
HETATM    1  C   UNL     1       7.228  -0.037  20.279  1.00  0.00     0.193 C 
HETATM    2  O   UNL     1       6.701  -0.215  19.184  1.00  0.00    -0.167 OA
HETATM    3  O   UNL     1       5.286   0.831  19.346  1.00  0.00    -0.105 OA
HETATM    4  N   UNL     1       5.539   1.318  20.452  1.00  0.00    -0.215 N 
ATOM      5  HN  UNL     1       4.862   1.851  20.999  1.00  0.00     0.199 HD
HETATM    6  C   UNL     1       6.884   1.058  20.888  1.00  0.00     0.172 C 
ENDROOT
BRANCH   6   7
HETATM    7  N   UNL     1       7.885   1.563  21.530  1.00  0.00    -0.291 N 
HETATM    8  C   UNL     1       8.368   2.632  22.202  1.00  0.00     0.325 C 
HETATM    9  O   UNL     1       7.647   3.550  22.477  1.00  0.00    -0.247 OA
HETATM   10  N   UNL     1       9.713   2.583  22.548  1.00  0.00    -0.319 N 
HETATM   11  C   UNL     1      10.009   3.313  23.590  1.00  0.00     0.092 C 
ATOM     12  HN  UNL     1      10.401   2.031  22.038  1.00  0.00     0.170 HD
ATOM     13  HN  UNL     1       8.623   0.858  21.528  1.00  0.00     0.172 HD
BRANCH  11  14
HETATM   14  C   UNL     1      11.060   4.237  23.670  1.00  0.00     0.007 C 
HETATM   15  C   UNL     1      10.712   5.533  23.810  1.00  0.00     0.012 C 
ENDBRANCH  11  14
ENDBRANCH   6   7
BRANCH   1  16
HETATM   16  C   UNL     1       8.169  -0.475  21.090  1.00  0.00     0.169 A 
HETATM   17  C   UNL     1       9.674  -1.092  21.706  1.00  0.00     0.183 A 
HETATM   18  O   UNL     1       8.471  -1.143  22.002  1.00  0.00    -0.284 OA
BRANCH  17  19
HETATM   19  N   UNL     1      10.723  -1.342  22.023  1.00  0.00    -0.343 N 
ATOM     20  HN  UNL     1      11.268  -1.763  21.271  1.00  0.00     0.164 HD
BRANCH  19  21
HETATM   21  C   UNL     1      11.455  -1.211  23.205  1.00  0.00     0.347 C 
HETATM   22  F   UNL     1      11.756   0.068  23.571  1.00  0.00    -0.234 F 
ENDBRANCH  19  21
ENDBRANCH  17  19
ENDBRANCH   1  16
TORSDOF 5
ENDMDL
MODEL 9
REMARK VINA RESULT:    -5.024      2.946      5.198
REMARK INTER + INTRA:          -6.904
REMARK INTER:                  -6.486
REMARK INTRA:                  -0.418
REMARK UNBOUND:                -0.411
REMARK  5 active torsions:
REMARK  status: ('A' for Active; 'I' for Inactive)
REMARK    1  A    between atoms: C_1  and  N_3 
REMARK    2  A    between atoms: N_3  and  C_5 
REMARK    3  A    between atoms: C_7  and  C_8 
REMARK    4  A    between atoms: C_13  and  N_14 
REMARK       I    between atoms: N_14  and  C_16 
REMARK       I    between atoms: C_16  and  N_18 
REMARK    5  A    between atoms: C_20  and  C_22 
ROOT
HETATM    1  C   UNL     1       9.701  -0.930  24.420  1.00  0.00     0.193 C 
HETATM    2  O   UNL     1       9.869  -0.449  25.536  1.00  0.00    -0.167 OA
HETATM    3  O   UNL     1      11.153   0.713  25.183  1.00  0.00    -0.105 OA
HETATM    4  N   UNL     1      11.218   0.556  23.960  1.00  0.00    -0.215 N 
ATOM      5  HN  UNL     1      11.977   0.921  23.386  1.00  0.00     0.199 HD
HETATM    6  C   UNL     1      10.111  -0.195  23.430  1.00  0.00     0.172 C 
ENDROOT
BRANCH   6   7
HETATM    7  N   UNL     1       9.320  -0.303  22.415  1.00  0.00    -0.291 N 
HETATM    8  C   UNL     1       8.753   0.320  21.358  1.00  0.00     0.325 C 
HETATM    9  O   UNL     1       9.100   1.425  21.049  1.00  0.00    -0.247 OA
HETATM   10  N   UNL     1       7.779  -0.397  20.673  1.00  0.00    -0.319 N 
HETATM   11  C   UNL     1       7.641  -0.029  19.427  1.00  0.00     0.092 C 
ATOM     12  HN  UNL     1       7.226  -1.138  21.102  1.00  0.00     0.170 HD
ATOM     13  HN  UNL     1       8.980  -1.265  22.408  1.00  0.00     0.172 HD
BRANCH  11  14
HETATM   14  C   UNL     1       6.430   0.276  18.792  1.00  0.00     0.007 C 
HETATM   15  C   UNL     1       5.498   0.897  19.542  1.00  0.00     0.012 C 
ENDBRANCH  11  14
ENDBRANCH   6   7
BRANCH   1  16
HETATM   16  C   UNL     1       9.111  -1.907  23.760  1.00  0.00     0.169 A 
HETATM   17  C   UNL     1       7.969  -3.120  23.262  1.00  0.00     0.183 A 
HETATM   18  O   UNL     1       9.195  -2.944  23.224  1.00  0.00    -0.284 OA
BRANCH  17  19
HETATM   19  N   UNL     1       7.109  -3.763  22.930  1.00  0.00    -0.343 N 
ATOM     20  HN  UNL     1       6.375  -3.828  23.635  1.00  0.00     0.164 HD
BRANCH  19  21
HETATM   21  C   UNL     1       6.811  -4.495  21.778  1.00  0.00     0.347 C 
HETATM   22  F   UNL     1       7.099  -5.827  21.838  1.00  0.00    -0.234 F 
ENDBRANCH  19  21
ENDBRANCH  17  19
ENDBRANCH   1  16
TORSDOF 5
ENDMDL
