MODEL 1
REMARK VINA RESULT:    -6.419      0.000      0.000
REMARK INTER + INTRA:         -10.355
REMARK INTER:                  -9.233
REMARK INTRA:                  -1.121
REMARK UNBOUND:                -1.121
REMARK  8 active torsions:
REMARK  status: ('A' for Active; 'I' for Inactive)
REMARK    1  A    between atoms: S_2  and  N_5 
REMARK    2  A    between atoms: N_5  and  C_7 
REMARK    3  A    between atoms: C_7  and  C_8 
REMARK    4  A    between atoms: C_9  and  C_15 
REMARK    5  A    between atoms: C_9  and  C_10 
REMARK    6  A    between atoms: C_10  and  N_11 
REMARK    7  A    between atoms: C_16  and  C_17 
REMARK       I    between atoms: C_17  and  N_19 
REMARK    8  A    between atoms: N_19  and  C_21 
ROOT
HETATM    1  C   UNL     1       8.718  -2.433  23.014  1.00  0.00     0.044 A 
HETATM    2  C   UNL     1       9.813  -1.417  23.069  1.00  0.00     0.114 A 
HETATM    3  C   UNL     1       9.096  -0.894  22.193  1.00  0.00     0.053 A 
ENDROOT
BRANCH   3   4
HETATM    4  C   UNL     1       8.579  -0.111  21.208  1.00  0.00     0.256 C 
HETATM    5  O   UNL     1       9.265   0.765  20.858  1.00  0.00    -0.267 OA
HETATM    6  N   UNL     1       7.324  -0.410  20.763  1.00  0.00    -0.308 N 
ATOM      7  HN  UNL     1       6.798  -1.144  21.237  1.00  0.00     0.170 HD
BRANCH   6   8
HETATM    8  C   UNL     1       6.770   0.208  19.751  1.00  0.00     0.123 A 
HETATM    9  N   UNL     1       7.246   0.257  18.454  1.00  0.00    -0.286 N 
HETATM   10  N   UNL     1       6.590   0.804  17.657  1.00  0.00    -0.310 N 
ATOM     11  HN  UNL     1       8.138  -0.169  18.202  1.00  0.00     0.188 HD
HETATM   12  C   UNL     1       5.367   1.279  18.529  1.00  0.00     0.111 A 
ATOM     13  HN  UNL     1       6.764   0.939  16.661  1.00  0.00     0.186 HD
HETATM   14  C   UNL     1       5.521   0.871  19.802  1.00  0.00     0.068 A 
ENDBRANCH   6   8
ENDBRANCH   3   4
BRANCH   1  15
HETATM   15  C   UNL     1       8.093  -3.350  23.270  1.00  0.00    -0.021 C 
BRANCH  15  16
HETATM   16  N   UNL     1       7.234  -4.255  23.349  1.00  0.00    -0.236 N 
ATOM     17  HN  UNL     1       7.015  -4.620  24.275  1.00  0.00     0.189 HD
BRANCH  16  18
HETATM   18  S   UNL     1       6.449  -4.882  22.096  1.00  0.00     0.327 S 
HETATM   19 CL   UNL     1       5.097  -5.860  22.997  1.00  0.00     0.042 Cl
HETATM   20  O   UNL     1       5.748  -3.894  21.316  1.00  0.00    -0.188 OA
HETATM   21  O   UNL     1       7.206  -5.812  21.337  1.00  0.00    -0.188 OA
ENDBRANCH  16  18
ENDBRANCH  15  16
ENDBRANCH   1  15
BRANCH   2  22
HETATM   22  C   UNL     1      11.267  -1.591  22.765  1.00  0.00     0.257 C 
HETATM   23  O   UNL     1      12.249  -1.933  22.717  1.00  0.00    -0.305 OA
ENDBRANCH   2  22
BRANCH   2  24
HETATM   24  C   UNL     1      10.275  -0.670  24.225  1.00  0.00     0.080 C 
BRANCH  24  25
HETATM   25  N   UNL     1      10.858   0.156  24.566  1.00  0.00    -0.409 N 
HETATM   26  H   UNL     1      11.770   0.355  24.206  1.00  0.00     0.155 HD
ATOM     27  HN  UNL     1      10.471   0.766  25.285  1.00  0.00     0.155 HD
ENDBRANCH  24  25
ENDBRANCH   2  24
TORSDOF 8
ENDMDL
MODEL 2
REMARK VINA RESULT:    -6.235     23.216     25.190
REMARK INTER + INTRA:         -10.090
REMARK INTER:                  -9.318
REMARK INTRA:                  -0.772
REMARK UNBOUND:                -1.121
REMARK  8 active torsions:
REMARK  status: ('A' for Active; 'I' for Inactive)
REMARK    1  A    between atoms: S_2  and  N_5 
REMARK    2  A    between atoms: N_5  and  C_7 
REMARK    3  A    between atoms: C_7  and  C_8 
REMARK    4  A    between atoms: C_9  and  C_15 
REMARK    5  A    between atoms: C_9  and  C_10 
REMARK    6  A    between atoms: C_10  and  N_11 
REMARK    7  A    between atoms: C_16  and  C_17 
REMARK       I    between atoms: C_17  and  N_19 
REMARK    8  A    between atoms: N_19  and  C_21 
ROOT
HETATM    1  C   UNL     1       9.318  15.175   2.503  1.00  0.00     0.044 A 
HETATM    2  C   UNL     1       9.569  14.896   3.951  1.00  0.00     0.114 A 
HETATM    3  C   UNL     1       9.051  13.810   3.622  1.00  0.00     0.053 A 
ENDROOT
BRANCH   3   4
HETATM    4  C   UNL     1       8.496  12.568   3.600  1.00  0.00     0.256 C 
HETATM    5  O   UNL     1       8.957  11.805   4.351  1.00  0.00    -0.267 OA
HETATM    6  N   UNL     1       7.496  12.344   2.700  1.00  0.00    -0.308 N 
ATOM      7  HN  UNL     1       7.265  13.079   2.031  1.00  0.00     0.170 HD
BRANCH   6   8
HETATM    8  C   UNL     1       6.821  11.224   2.661  1.00  0.00     0.123 A 
HETATM    9  N   UNL     1       6.633  10.338   3.705  1.00  0.00    -0.286 N 
HETATM   10  N   UNL     1       5.947   9.411   3.514  1.00  0.00    -0.310 N 
ATOM     11  HN  UNL     1       7.077  10.488   4.612  1.00  0.00     0.188 HD
HETATM   12  C   UNL     1       5.536   9.632   2.008  1.00  0.00     0.111 A 
ATOM     13  HN  UNL     1       5.684   8.660   4.151  1.00  0.00     0.186 HD
HETATM   14  C   UNL     1       6.087  10.767   1.540  1.00  0.00     0.068 A 
ENDBRANCH   6   8
ENDBRANCH   3   4
BRANCH   1  15
HETATM   15  C   UNL     1       9.321  15.713   1.499  1.00  0.00    -0.021 C 
BRANCH  15  16
HETATM   16  N   UNL     1       9.372  16.534   0.558  1.00  0.00    -0.236 N 
ATOM     17  HN  UNL     1       9.823  16.236  -0.306  1.00  0.00     0.189 HD
BRANCH  16  18
HETATM   18  S   UNL     1       8.778  18.025   0.612  1.00  0.00     0.327 S 
HETATM   19 CL   UNL     1       8.663  18.277   2.487  1.00  0.00     0.042 Cl
HETATM   20  O   UNL     1       9.712  19.022   0.151  1.00  0.00    -0.188 OA
HETATM   21  O   UNL     1       7.465  18.152   0.090  1.00  0.00    -0.188 OA
ENDBRANCH  16  18
ENDBRANCH  15  16
ENDBRANCH   1  15
BRANCH   2  22
HETATM   22  C   UNL     1       9.012  15.598   5.148  1.00  0.00     0.257 C 
HETATM   23  O   UNL     1       8.750  15.878   6.116  1.00  0.00    -0.305 OA
ENDBRANCH   2  22
BRANCH   2  24
HETATM   24  C   UNL     1      10.832  14.956   4.661  1.00  0.00     0.080 C 
BRANCH  24  25
HETATM   25  N   UNL     1      11.843  14.613   4.694  1.00  0.00    -0.409 N 
HETATM   26  H   UNL     1      12.381  14.447   3.868  1.00  0.00     0.155 HD
ATOM     27  HN  UNL     1      12.275  14.448   5.603  1.00  0.00     0.155 HD
ENDBRANCH  24  25
ENDBRANCH   2  24
TORSDOF 8
ENDMDL
MODEL 3
REMARK VINA RESULT:    -6.193      3.749      5.870
REMARK INTER + INTRA:         -10.030
REMARK INTER:                  -8.929
REMARK INTRA:                  -1.101
REMARK UNBOUND:                -1.121
REMARK  8 active torsions:
REMARK  status: ('A' for Active; 'I' for Inactive)
REMARK    1  A    between atoms: S_2  and  N_5 
REMARK    2  A    between atoms: N_5  and  C_7 
REMARK    3  A    between atoms: C_7  and  C_8 
REMARK    4  A    between atoms: C_9  and  C_15 
REMARK    5  A    between atoms: C_9  and  C_10 
REMARK    6  A    between atoms: C_10  and  N_11 
REMARK    7  A    between atoms: C_16  and  C_17 
REMARK       I    between atoms: C_17  and  N_19 
REMARK    8  A    between atoms: N_19  and  C_21 
ROOT
HETATM    1  C   UNL     1       7.227  -5.088  24.733  1.00  0.00     0.044 A 
HETATM    2  C   UNL     1       6.475  -4.969  23.446  1.00  0.00     0.114 A 
HETATM    3  C   UNL     1       7.264  -4.013  23.308  1.00  0.00     0.053 A 
ENDROOT
BRANCH   3   4
HETATM    4  C   UNL     1       7.932  -2.906  22.885  1.00  0.00     0.256 C 
HETATM    5  O   UNL     1       7.284  -2.124  22.313  1.00  0.00    -0.267 OA
HETATM    6  N   UNL     1       9.270  -2.842  23.146  1.00  0.00    -0.308 N 
ATOM      7  HN  UNL     1       9.726  -3.652  23.565  1.00  0.00     0.170 HD
BRANCH   6   8
HETATM    8  C   UNL     1       9.989  -1.782  22.879  1.00  0.00     0.123 A 
HETATM    9  N   UNL     1      10.082  -1.135  21.661  1.00  0.00    -0.286 N 
HETATM   10  N   UNL     1      10.727  -0.161  21.613  1.00  0.00    -0.310 N 
ATOM     11  HN  UNL     1       9.606  -1.494  20.833  1.00  0.00     0.188 HD
HETATM   12  C   UNL     1      11.238  -0.049  23.099  1.00  0.00     0.111 A 
ATOM     13  HN  UNL     1      10.910   0.454  20.820  1.00  0.00     0.186 HD
HETATM   14  C   UNL     1      10.742  -1.061  23.836  1.00  0.00     0.068 A 
ENDBRANCH   6   8
ENDBRANCH   3   4
BRANCH   1  15
HETATM   15  C   UNL     1       7.574  -5.497  25.738  1.00  0.00    -0.021 C 
BRANCH  15  16
HETATM   16  N   UNL     1       7.795  -5.734  26.945  1.00  0.00    -0.236 N 
ATOM     17  HN  UNL     1       8.768  -5.810  27.242  1.00  0.00     0.189 HD
BRANCH  16  18
HETATM   18  S   UNL     1       6.658  -5.927  28.063  1.00  0.00     0.327 S 
HETATM   19 CL   UNL     1       5.253  -6.627  27.001  1.00  0.00     0.042 Cl
HETATM   20  O   UNL     1       6.970  -6.965  29.013  1.00  0.00    -0.188 OA
HETATM   21  O   UNL     1       6.189  -4.717  28.636  1.00  0.00    -0.188 OA
ENDBRANCH  16  18
ENDBRANCH  15  16
ENDBRANCH   1  15
BRANCH   2  22
HETATM   22  C   UNL     1       5.019  -4.704  23.234  1.00  0.00     0.257 C 
HETATM   23  O   UNL     1       4.046  -4.677  22.863  1.00  0.00    -0.305 OA
ENDBRANCH   2  22
BRANCH   2  24
HETATM   24  C   UNL     1       6.311  -5.979  22.417  1.00  0.00     0.080 C 
BRANCH  24  25
HETATM   25  N   UNL     1       6.009  -6.173  21.412  1.00  0.00    -0.409 N 
HETATM   26  H   UNL     1       5.343  -6.881  21.178  1.00  0.00     0.155 HD
ATOM     27  HN  UNL     1       6.415  -5.615  20.662  1.00  0.00     0.155 HD
ENDBRANCH  24  25
ENDBRANCH   2  24
TORSDOF 8
ENDMDL
MODEL 4
REMARK VINA RESULT:    -6.075      2.098      2.219
REMARK INTER + INTRA:          -9.860
REMARK INTER:                  -8.837
REMARK INTRA:                  -1.022
REMARK UNBOUND:                -1.121
REMARK  8 active torsions:
REMARK  status: ('A' for Active; 'I' for Inactive)
REMARK    1  A    between atoms: S_2  and  N_5 
REMARK    2  A    between atoms: N_5  and  C_7 
REMARK    3  A    between atoms: C_7  and  C_8 
REMARK    4  A    between atoms: C_9  and  C_15 
REMARK    5  A    between atoms: C_9  and  C_10 
REMARK    6  A    between atoms: C_10  and  N_11 
REMARK    7  A    between atoms: C_16  and  C_17 
REMARK       I    between atoms: C_17  and  N_19 
REMARK    8  A    between atoms: N_19  and  C_21 
ROOT
HETATM    1  C   UNL     1       9.294  -1.988  23.689  1.00  0.00     0.044 A 
HETATM    2  C   UNL     1      10.436  -1.083  23.353  1.00  0.00     0.114 A 
HETATM    3  C   UNL     1       9.604  -0.677  22.517  1.00  0.00     0.053 A 
ENDROOT
BRANCH   3   4
HETATM    4  C   UNL     1       8.962  -0.057  21.490  1.00  0.00     0.256 C 
HETATM    5  O   UNL     1       9.498   0.890  21.070  1.00  0.00    -0.267 OA
HETATM    6  N   UNL     1       7.769  -0.581  21.087  1.00  0.00    -0.308 N 
ATOM      7  HN  UNL     1       7.369  -1.355  21.619  1.00  0.00     0.170 HD
BRANCH   6   8
HETATM    8  C   UNL     1       7.117  -0.131  20.046  1.00  0.00     0.123 A 
HETATM    9  N   UNL     1       7.643   0.129  18.794  1.00  0.00    -0.286 N 
HETATM   10  N   UNL     1       6.903   0.470  17.956  1.00  0.00    -0.310 N 
ATOM     11  HN  UNL     1       8.641   0.027  18.608  1.00  0.00     0.188 HD
HETATM   12  C   UNL     1       5.532   0.482  18.733  1.00  0.00     0.111 A 
ATOM     13  HN  UNL     1       7.094   0.699  16.980  1.00  0.00     0.186 HD
HETATM   14  C   UNL     1       5.720   0.089  20.006  1.00  0.00     0.068 A 
ENDBRANCH   6   8
ENDBRANCH   3   4
BRANCH   1  15
HETATM   15  C   UNL     1       8.676  -2.778  24.228  1.00  0.00    -0.021 C 
BRANCH  15  16
HETATM   16  N   UNL     1       7.826  -3.620  24.592  1.00  0.00    -0.236 N 
ATOM     17  HN  UNL     1       6.918  -3.606  24.129  1.00  0.00     0.189 HD
BRANCH  16  18
HETATM   18  S   UNL     1       8.063  -4.722  25.735  1.00  0.00     0.327 S 
HETATM   19 CL   UNL     1       6.366  -5.568  25.748  1.00  0.00     0.042 Cl
HETATM   20  O   UNL     1       8.996  -5.750  25.345  1.00  0.00    -0.188 OA
HETATM   21  O   UNL     1       8.275  -4.186  27.031  1.00  0.00    -0.188 OA
ENDBRANCH  16  18
ENDBRANCH  15  16
ENDBRANCH   1  15
BRANCH   2  22
HETATM   22  C   UNL     1      11.800  -1.442  22.856  1.00  0.00     0.257 C 
HETATM   23  O   UNL     1      12.669  -1.947  22.586  1.00  0.00    -0.305 OA
ENDBRANCH   2  22
BRANCH   2  24
HETATM   24  C   UNL     1      11.137  -0.171  24.237  1.00  0.00     0.080 C 
BRANCH  24  25
HETATM   25  N   UNL     1      12.078   0.093  24.667  1.00  0.00    -0.409 N 
HETATM   26  H   UNL     1      12.944  -0.275  24.330  1.00  0.00     0.155 HD
ATOM     27  HN  UNL     1      12.093   0.745  25.451  1.00  0.00     0.155 HD
ENDBRANCH  24  25
ENDBRANCH   2  24
TORSDOF 8
ENDMDL
MODEL 5
REMARK VINA RESULT:    -5.826     24.135     26.287
REMARK INTER + INTRA:          -9.501
REMARK INTER:                  -8.436
REMARK INTRA:                  -1.065
REMARK UNBOUND:                -1.121
REMARK  8 active torsions:
REMARK  status: ('A' for Active; 'I' for Inactive)
REMARK    1  A    between atoms: S_2  and  N_5 
REMARK    2  A    between atoms: N_5  and  C_7 
REMARK    3  A    between atoms: C_7  and  C_8 
REMARK    4  A    between atoms: C_9  and  C_15 
REMARK    5  A    between atoms: C_9  and  C_10 
REMARK    6  A    between atoms: C_10  and  N_11 
REMARK    7  A    between atoms: C_16  and  C_17 
REMARK       I    between atoms: C_17  and  N_19 
REMARK    8  A    between atoms: N_19  and  C_21 
ROOT
HETATM    1  C   UNL     1       8.155  15.990   1.766  1.00  0.00     0.044 A 
HETATM    2  C   UNL     1       8.762  14.973   2.678  1.00  0.00     0.114 A 
HETATM    3  C   UNL     1       7.919  14.254   2.106  1.00  0.00     0.053 A 
ENDROOT
BRANCH   3   4
HETATM    4  C   UNL     1       7.097  13.242   1.715  1.00  0.00     0.256 C 
HETATM    5  O   UNL     1       7.094  13.019   0.570  1.00  0.00    -0.267 OA
HETATM    6  N   UNL     1       6.358  12.626   2.681  1.00  0.00    -0.308 N 
ATOM      7  HN  UNL     1       6.385  12.998   3.631  1.00  0.00     0.170 HD
BRANCH   6   8
HETATM    8  C   UNL     1       5.615  11.576   2.438  1.00  0.00     0.123 A 
HETATM    9  N   UNL     1       4.483  11.534   1.647  1.00  0.00    -0.286 N 
HETATM   10  N   UNL     1       3.973  10.494   1.486  1.00  0.00    -0.310 N 
ATOM     11  HN  UNL     1       4.105  12.379   1.219  1.00  0.00     0.188 HD
HETATM   12  C   UNL     1       4.904   9.552   2.339  1.00  0.00     0.111 A 
ATOM     13  HN  UNL     1       3.145  10.259   0.939  1.00  0.00     0.186 HD
HETATM   14  C   UNL     1       5.905  10.266   2.887  1.00  0.00     0.068 A 
ENDBRANCH   6   8
ENDBRANCH   3   4
BRANCH   1  15
HETATM   15  C   UNL     1       7.981  16.979   1.228  1.00  0.00    -0.021 C 
BRANCH  15  16
HETATM   16  N   UNL     1       7.514  17.998   0.673  1.00  0.00    -0.236 N 
ATOM     17  HN  UNL     1       6.575  17.934   0.281  1.00  0.00     0.189 HD
BRANCH  16  18
HETATM   18  S   UNL     1       8.286  19.398   0.534  1.00  0.00     0.327 S 
HETATM   19 CL   UNL     1       6.954  20.437  -0.326  1.00  0.00     0.042 Cl
HETATM   20  O   UNL     1       8.514  20.047   1.802  1.00  0.00    -0.188 OA
HETATM   21  O   UNL     1       9.413  19.363  -0.327  1.00  0.00    -0.188 OA
ENDBRANCH  16  18
ENDBRANCH  15  16
ENDBRANCH   1  15
BRANCH   2  22
HETATM   22  C   UNL     1       8.789  14.955   4.174  1.00  0.00     0.257 C 
HETATM   23  O   UNL     1       8.533  14.947   5.182  1.00  0.00    -0.305 OA
ENDBRANCH   2  22
BRANCH   2  24
HETATM   24  C   UNL     1      10.157  14.586   2.774  1.00  0.00     0.080 C 
BRANCH  24  25
HETATM   25  N   UNL     1      11.055  14.658   3.347  1.00  0.00    -0.409 N 
HETATM   26  H   UNL     1      11.805  15.269   3.096  1.00  0.00     0.155 HD
ATOM     27  HN  UNL     1      11.151  14.080   4.182  1.00  0.00     0.155 HD
ENDBRANCH  24  25
ENDBRANCH   2  24
TORSDOF 8
ENDMDL
MODEL 6
REMARK VINA RESULT:    -5.756      3.959      5.535
REMARK INTER + INTRA:          -9.401
REMARK INTER:                  -8.219
REMARK INTRA:                  -1.182
REMARK UNBOUND:                -1.121
REMARK  8 active torsions:
REMARK  status: ('A' for Active; 'I' for Inactive)
REMARK    1  A    between atoms: S_2  and  N_5 
REMARK    2  A    between atoms: N_5  and  C_7 
REMARK    3  A    between atoms: C_7  and  C_8 
REMARK    4  A    between atoms: C_9  and  C_15 
REMARK    5  A    between atoms: C_9  and  C_10 
REMARK    6  A    between atoms: C_10  and  N_11 
REMARK    7  A    between atoms: C_16  and  C_17 
REMARK       I    between atoms: C_17  and  N_19 
REMARK    8  A    between atoms: N_19  and  C_21 
ROOT
HETATM    1  C   UNL     1       8.980  -0.039  21.488  1.00  0.00     0.044 A 
HETATM    2  C   UNL     1       9.853  -0.538  22.595  1.00  0.00     0.114 A 
HETATM    3  C   UNL     1       9.810   0.671  22.900  1.00  0.00     0.053 A 
ENDROOT
BRANCH   3   4
HETATM    4  C   UNL     1       9.999   1.897  23.460  1.00  0.00     0.256 C 
HETATM    5  O   UNL     1       9.461   2.064  24.480  1.00  0.00    -0.267 OA
HETATM    6  N   UNL     1      10.761   2.792  22.767  1.00  0.00    -0.308 N 
ATOM      7  HN  UNL     1      11.083   2.542  21.833  1.00  0.00     0.170 HD
BRANCH   6   8
HETATM    8  C   UNL     1      11.094   3.959  23.256  1.00  0.00     0.123 A 
HETATM    9  N   UNL     1      10.238   5.003  23.554  1.00  0.00    -0.286 N 
HETATM   10  N   UNL     1      10.699   5.958  24.045  1.00  0.00    -0.310 N 
ATOM     11  HN  UNL     1       9.240   4.942  23.353  1.00  0.00     0.188 HD
HETATM   12  C   UNL     1      12.222   5.565  24.128  1.00  0.00     0.111 A 
ATOM     13  HN  UNL     1      10.238   6.819  24.341  1.00  0.00     0.186 HD
HETATM   14  C   UNL     1      12.405   4.322  23.646  1.00  0.00     0.068 A 
ENDBRANCH   6   8
ENDBRANCH   3   4
BRANCH   1  15
HETATM   15  C   UNL     1       8.304  -0.044  20.572  1.00  0.00    -0.021 C 
BRANCH  15  16
HETATM   16  N   UNL     1       7.795   0.046  19.433  1.00  0.00    -0.236 N 
ATOM     17  HN  UNL     1       8.427   0.117  18.637  1.00  0.00     0.189 HD
BRANCH  16  18
HETATM   18  S   UNL     1       6.217   0.057  19.135  1.00  0.00     0.327 S 
HETATM   19 CL   UNL     1       5.683   1.544  20.182  1.00  0.00     0.042 Cl
HETATM   20  O   UNL     1       5.902   0.417  17.775  1.00  0.00    -0.188 OA
HETATM   21  O   UNL     1       5.520  -1.076  19.628  1.00  0.00    -0.188 OA
ENDBRANCH  16  18
ENDBRANCH  15  16
ENDBRANCH   1  15
BRANCH   2  22
HETATM   22  C   UNL     1      11.198  -1.185  22.508  1.00  0.00     0.257 C 
HETATM   23  O   UNL     1      12.010  -1.782  22.246  1.00  0.00    -0.305 OA
ENDBRANCH   2  22
BRANCH   2  24
HETATM   24  C   UNL     1       9.555  -1.579  23.560  1.00  0.00     0.080 C 
BRANCH  24  25
HETATM   25  N   UNL     1       9.338  -2.615  23.702  1.00  0.00    -0.409 N 
HETATM   26  H   UNL     1       8.542  -3.058  23.291  1.00  0.00     0.155 HD
ATOM     27  HN  UNL     1       9.968  -3.173  24.277  1.00  0.00     0.155 HD
ENDBRANCH  24  25
ENDBRANCH   2  24
TORSDOF 8
ENDMDL
MODEL 7
REMARK VINA RESULT:    -5.753     19.725     22.375
REMARK INTER + INTRA:          -9.397
REMARK INTER:                  -8.306
REMARK INTRA:                  -1.091
REMARK UNBOUND:                -1.121
REMARK  8 active torsions:
REMARK  status: ('A' for Active; 'I' for Inactive)
REMARK    1  A    between atoms: S_2  and  N_5 
REMARK    2  A    between atoms: N_5  and  C_7 
REMARK    3  A    between atoms: C_7  and  C_8 
REMARK    4  A    between atoms: C_9  and  C_15 
REMARK    5  A    between atoms: C_9  and  C_10 
REMARK    6  A    between atoms: C_10  and  N_11 
REMARK    7  A    between atoms: C_16  and  C_17 
REMARK       I    between atoms: C_17  and  N_19 
REMARK    8  A    between atoms: N_19  and  C_21 
ROOT
HETATM    1  C   UNL     1       6.870  11.339   3.498  1.00  0.00     0.044 A 
HETATM    2  C   UNL     1       5.377  11.299   3.582  1.00  0.00     0.114 A 
HETATM    3  C   UNL     1       5.636  10.167   4.038  1.00  0.00     0.053 A 
ENDROOT
BRANCH   3   4
HETATM    4  C   UNL     1       5.580   8.895   4.517  1.00  0.00     0.256 C 
HETATM    5  O   UNL     1       6.251   8.685   5.447  1.00  0.00    -0.267 OA
HETATM    6  N   UNL     1       4.782   8.010   3.853  1.00  0.00    -0.308 N 
ATOM      7  HN  UNL     1       4.332   8.309   2.988  1.00  0.00     0.170 HD
BRANCH   6   8
HETATM    8  C   UNL     1       4.571   6.792   4.284  1.00  0.00     0.123 A 
HETATM    9  N   UNL     1       5.533   5.860   4.623  1.00  0.00    -0.286 N 
HETATM   10  N   UNL     1       5.168   4.835   5.051  1.00  0.00    -0.310 N 
ATOM     11  HN  UNL     1       6.527   6.058   4.505  1.00  0.00     0.188 HD
HETATM   12  C   UNL     1       3.604   5.023   5.022  1.00  0.00     0.111 A 
ATOM     13  HN  UNL     1       5.716   4.032   5.361  1.00  0.00     0.186 HD
HETATM   14  C   UNL     1       3.294   6.247   4.558  1.00  0.00     0.068 A 
ENDBRANCH   6   8
ENDBRANCH   3   4
BRANCH   1  15
HETATM   15  C   UNL     1       7.923  11.736   3.324  1.00  0.00    -0.021 C 
BRANCH  15  16
HETATM   16  N   UNL     1       9.035  12.306   3.381  1.00  0.00    -0.236 N 
ATOM     17  HN  UNL     1       9.855  11.773   3.092  1.00  0.00     0.189 HD
BRANCH  16  18
HETATM   18  S   UNL     1       9.263  13.816   3.876  1.00  0.00     0.327 S 
HETATM   19 CL   UNL     1       9.303  14.718   2.209  1.00  0.00     0.042 Cl
HETATM   20  O   UNL     1       8.126  14.360   4.575  1.00  0.00    -0.188 OA
HETATM   21  O   UNL     1      10.514  14.042   4.507  1.00  0.00    -0.188 OA
ENDBRANCH  16  18
ENDBRANCH  15  16
ENDBRANCH   1  15
BRANCH   2  22
HETATM   22  C   UNL     1       4.376  11.389   2.475  1.00  0.00     0.257 C 
HETATM   23  O   UNL     1       3.580  11.659   1.860  1.00  0.00    -0.305 OA
ENDBRANCH   2  22
BRANCH   2  24
HETATM   24  C   UNL     1       4.502  12.222   4.279  1.00  0.00     0.080 C 
BRANCH  24  25
HETATM   25  N   UNL     1       4.144  13.226   4.335  1.00  0.00    -0.409 N 
HETATM   26  H   UNL     1       3.552  13.545   5.075  1.00  0.00     0.155 HD
ATOM     27  HN  UNL     1       4.415  13.885   3.605  1.00  0.00     0.155 HD
ENDBRANCH  24  25
ENDBRANCH   2  24
TORSDOF 8
ENDMDL
MODEL 8
REMARK VINA RESULT:    -5.733      3.568      4.478
REMARK INTER + INTRA:          -9.368
REMARK INTER:                  -8.507
REMARK INTRA:                  -0.861
REMARK UNBOUND:                -1.121
REMARK  8 active torsions:
REMARK  status: ('A' for Active; 'I' for Inactive)
REMARK    1  A    between atoms: S_2  and  N_5 
REMARK    2  A    between atoms: N_5  and  C_7 
REMARK    3  A    between atoms: C_7  and  C_8 
REMARK    4  A    between atoms: C_9  and  C_15 
REMARK    5  A    between atoms: C_9  and  C_10 
REMARK    6  A    between atoms: C_10  and  N_11 
REMARK    7  A    between atoms: C_16  and  C_17 
REMARK       I    between atoms: C_17  and  N_19 
REMARK    8  A    between atoms: N_19  and  C_21 
ROOT
HETATM    1  C   UNL     1       4.527  -4.676  23.165  1.00  0.00     0.044 A 
HETATM    2  C   UNL     1       5.450  -3.589  23.616  1.00  0.00     0.114 A 
HETATM    3  C   UNL     1       5.415  -3.332  22.396  1.00  0.00     0.053 A 
ENDROOT
BRANCH   3   4
HETATM    4  C   UNL     1       5.622  -2.829  21.148  1.00  0.00     0.256 C 
HETATM    5  O   UNL     1       5.587  -3.613  20.286  1.00  0.00    -0.267 OA
HETATM    6  N   UNL     1       5.871  -1.492  21.044  1.00  0.00    -0.308 N 
ATOM      7  HN  UNL     1       5.975  -0.945  21.899  1.00  0.00     0.170 HD
BRANCH   6   8
HETATM    8  C   UNL     1       5.981  -0.884  19.891  1.00  0.00     0.123 A 
HETATM    9  N   UNL     1       5.474  -1.316  18.680  1.00  0.00    -0.286 N 
HETATM   10  N   UNL     1       5.611  -0.616  17.754  1.00  0.00    -0.310 N 
ATOM     11  HN  UNL     1       4.996  -2.214  18.596  1.00  0.00     0.188 HD
HETATM   12  C   UNL     1       6.394   0.595  18.390  1.00  0.00     0.111 A 
ATOM     13  HN  UNL     1       5.306  -0.752  16.790  1.00  0.00     0.186 HD
HETATM   14  C   UNL     1       6.579   0.385  19.706  1.00  0.00     0.068 A 
ENDBRANCH   6   8
ENDBRANCH   3   4
BRANCH   1  15
HETATM   15  C   UNL     1       3.810  -5.560  23.208  1.00  0.00    -0.021 C 
BRANCH  15  16
HETATM   16  N   UNL     1       3.264  -6.682  23.290  1.00  0.00    -0.236 N 
ATOM     17  HN  UNL     1       3.099  -7.192  22.423  1.00  0.00     0.189 HD
BRANCH  16  18
HETATM   18  S   UNL     1       2.804  -7.377  24.663  1.00  0.00     0.327 S 
HETATM   19 CL   UNL     1       4.338  -7.066  25.732  1.00  0.00     0.042 Cl
HETATM   20  O   UNL     1       1.732  -6.672  25.321  1.00  0.00    -0.188 OA
HETATM   21  O   UNL     1       2.629  -8.782  24.578  1.00  0.00    -0.188 OA
ENDBRANCH  16  18
ENDBRANCH  15  16
ENDBRANCH   1  15
BRANCH   2  22
HETATM   22  C   UNL     1       6.793  -3.711  24.262  1.00  0.00     0.257 C 
HETATM   23  O   UNL     1       7.802  -3.878  24.457  1.00  0.00    -0.305 OA
ENDBRANCH   2  22
BRANCH   2  24
HETATM   24  C   UNL     1       5.200  -2.572  24.619  1.00  0.00     0.080 C 
BRANCH  24  25
HETATM   25  N   UNL     1       4.648  -2.314  25.496  1.00  0.00    -0.409 N 
HETATM   26  H   UNL     1       3.673  -2.511  25.594  1.00  0.00     0.155 HD
ATOM     27  HN  UNL     1       5.135  -1.850  26.262  1.00  0.00     0.155 HD
ENDBRANCH  24  25
ENDBRANCH   2  24
TORSDOF 8
ENDMDL
MODEL 9
REMARK VINA RESULT:    -5.660     19.650     22.333
REMARK INTER + INTRA:          -9.263
REMARK INTER:                  -8.121
REMARK INTRA:                  -1.141
REMARK UNBOUND:                -1.121
REMARK  8 active torsions:
REMARK  status: ('A' for Active; 'I' for Inactive)
REMARK    1  A    between atoms: S_2  and  N_5 
REMARK    2  A    between atoms: N_5  and  C_7 
REMARK    3  A    between atoms: C_7  and  C_8 
REMARK    4  A    between atoms: C_9  and  C_15 
REMARK    5  A    between atoms: C_9  and  C_10 
REMARK    6  A    between atoms: C_10  and  N_11 
REMARK    7  A    between atoms: C_16  and  C_17 
REMARK       I    between atoms: C_17  and  N_19 
REMARK    8  A    between atoms: N_19  and  C_21 
ROOT
HETATM    1  C   UNL     1       4.702  11.140   2.808  1.00  0.00     0.044 A 
HETATM    2  C   UNL     1       5.992  11.203   3.561  1.00  0.00     0.114 A 
HETATM    3  C   UNL     1       5.603  10.074   3.921  1.00  0.00     0.053 A 
ENDROOT
BRANCH   3   4
HETATM    4  C   UNL     1       5.445   8.865   4.524  1.00  0.00     0.256 C 
HETATM    5  O   UNL     1       5.832   8.803   5.622  1.00  0.00    -0.267 OA
HETATM    6  N   UNL     1       4.887   7.863   3.784  1.00  0.00    -0.308 N 
ATOM      7  HN  UNL     1       4.691   8.033   2.798  1.00  0.00     0.170 HD
BRANCH   6   8
HETATM    8  C   UNL     1       4.592   6.694   4.291  1.00  0.00     0.123 A 
HETATM    9  N   UNL     1       5.483   5.684   4.606  1.00  0.00    -0.286 N 
HETATM   10  N   UNL     1       5.054   4.722   5.112  1.00  0.00    -0.310 N 
ATOM     11  HN  UNL     1       6.479   5.776   4.404  1.00  0.00     0.188 HD
HETATM   12  C   UNL     1       3.518   5.065   5.189  1.00  0.00     0.111 A 
ATOM     13  HN  UNL     1       5.543   3.882   5.421  1.00  0.00     0.186 HD
HETATM   14  C   UNL     1       3.294   6.294   4.687  1.00  0.00     0.068 A 
ENDBRANCH   6   8
ENDBRANCH   3   4
BRANCH   1  15
HETATM   15  C   UNL     1       3.861  11.431   2.097  1.00  0.00    -0.021 C 
BRANCH  15  16
HETATM   16  N   UNL     1       2.872  11.473   1.334  1.00  0.00    -0.236 N 
ATOM     17  HN  UNL     1       2.990  11.115   0.386  1.00  0.00     0.189 HD
BRANCH  16  18
HETATM   18  S   UNL     1       1.428  12.048   1.738  1.00  0.00     0.327 S 
HETATM   19 CL   UNL     1       1.882  13.838   2.163  1.00  0.00     0.042 Cl
HETATM   20  O   UNL     1       0.523  12.141   0.619  1.00  0.00    -0.188 OA
HETATM   21  O   UNL     1       0.872  11.467   2.906  1.00  0.00    -0.188 OA
ENDBRANCH  16  18
ENDBRANCH  15  16
ENDBRANCH   1  15
BRANCH   2  22
HETATM   22  C   UNL     1       6.408  12.167   4.627  1.00  0.00     0.257 C 
HETATM   23  O   UNL     1       6.919  12.672   5.380  1.00  0.00    -0.305 OA
ENDBRANCH   2  22
BRANCH   2  24
HETATM   24  C   UNL     1       7.324  11.417   3.026  1.00  0.00     0.080 C 
BRANCH  24  25
HETATM   25  N   UNL     1       8.369  11.253   3.168  1.00  0.00    -0.409 N 
HETATM   26  H   UNL     1       8.940  10.803   2.483  1.00  0.00     0.155 HD
ATOM     27  HN  UNL     1       8.800  11.568   4.037  1.00  0.00     0.155 HD
ENDBRANCH  24  25
ENDBRANCH   2  24
TORSDOF 8
ENDMDL
