REMARK  8 active torsions:
REMARK  status: ('A' for Active; 'I' for Inactive)
REMARK    1  A    between atoms: S_2  and  N_5 
REMARK    2  A    between atoms: N_5  and  C_7 
REMARK    3  A    between atoms: C_7  and  C_8 
REMARK    4  A    between atoms: C_9  and  C_15 
REMARK    5  A    between atoms: C_9  and  C_10 
REMARK    6  A    between atoms: C_10  and  N_11 
REMARK    7  A    between atoms: C_16  and  C_17 
REMARK       I    between atoms: C_17  and  N_19 
REMARK    8  A    between atoms: N_19  and  C_21 
ROOT
HETATM    1  C   UNL     1       9.504  -2.039  23.609  1.00  0.00     0.044 A 
HETATM    2  C   UNL     1      10.614  -1.100  23.260  1.00  0.00     0.114 A 
HETATM    3  C   UNL     1       9.735  -0.671  22.486  1.00  0.00     0.053 A 
ENDROOT
BRANCH   3   4
HETATM    4  C   UNL     1       9.034  -0.015  21.522  1.00  0.00     0.256 C 
HETATM    5  O   UNL     1       9.545   0.946  21.104  1.00  0.00    -0.267 OA
HETATM    6  N   UNL     1       7.818  -0.526  21.173  1.00  0.00    -0.308 N 
ATOM      7  HN  UNL     1       7.450  -1.318  21.700  1.00  0.00     0.170 HD
BRANCH   6   8
HETATM    8  C   UNL     1       7.106  -0.040  20.189  1.00  0.00     0.123 A 
HETATM    9  N   UNL     1       7.453  -0.022  18.851  1.00  0.00    -0.286 N 
HETATM   10  N   UNL     1       6.668   0.397  18.093  1.00  0.00    -0.310 N 
ATOM     11  HN  UNL     1       8.362  -0.362  18.536  1.00  0.00     0.188 HD
HETATM   12  C   UNL     1       5.482   0.788  19.054  1.00  0.00     0.111 A 
ATOM     13  HN  UNL     1       6.733   0.486  17.079  1.00  0.00     0.186 HD
HETATM   14  C   UNL     1       5.798   0.483  20.326  1.00  0.00     0.068 A 
ENDBRANCH   6   8
ENDBRANCH   3   4
BRANCH   1  15
HETATM   15  C   UNL     1       8.925  -2.864  24.140  1.00  0.00    -0.021 C 
BRANCH  15  16
HETATM   16  N   UNL     1       8.064  -3.605  24.662  1.00  0.00    -0.236 N 
ATOM     17  HN  UNL     1       7.210  -3.783  24.134  1.00  0.00     0.189 HD
BRANCH  16  18
HETATM   18  S   UNL     1       8.206  -4.297  26.104  1.00  0.00     0.327 S 
HETATM   19 CL   UNL     1       6.402  -4.781  26.428  1.00  0.00     0.042 Cl
HETATM   20  O   UNL     1       8.932  -5.542  26.064  1.00  0.00    -0.188 OA
HETATM   21  O   UNL     1       8.597  -3.413  27.142  1.00  0.00    -0.188 OA
ENDBRANCH  16  18
ENDBRANCH  15  16
ENDBRANCH   1  15
BRANCH   2  22
HETATM   22  C   UNL     1      11.957  -1.413  22.681  1.00  0.00     0.257 C 
HETATM   23  O   UNL     1      12.945  -1.370  22.356  1.00  0.00    -0.305 OA
ENDBRANCH   2  22
BRANCH   2  24
HETATM   24  C   UNL     1      11.344  -0.218  24.151  1.00  0.00     0.080 C 
BRANCH  24  25
HETATM   25  N   UNL     1      12.271   0.278  24.337  1.00  0.00    -0.409 N 
HETATM   26  H   UNL     1      13.116   0.033  23.862  1.00  0.00     0.155 HD
ATOM     27  HN  UNL     1      12.295   1.030  25.025  1.00  0.00     0.155 HD
ENDBRANCH  24  25
ENDBRANCH   2  24
TORSDOF 8
