REMARK  6 active torsions:
REMARK  status: ('A' for Active; 'I' for Inactive)
REMARK    1  A    between atoms: S_2  and  N_5 
REMARK    2  A    between atoms: C_7  and  C_8 
REMARK    3  A    between atoms: C_8  and  C_9 
REMARK    4  A    between atoms: C_9  and  C_15 
REMARK    5  A    between atoms: C_15  and  C_16 
REMARK       I    between atoms: C_16  and  N_18 
REMARK    6  A    between atoms: N_18  and  C_20 
ROOT
HETATM    1  C   UNL     1      10.322  -1.097  23.265  1.00  0.00     0.075 C 
HETATM    2  C   UNL     1      11.081  -0.049  24.297  1.00  0.00    -0.000 C 
HETATM    3  C   UNL     1      12.069   0.283  24.318  1.00  0.00    -0.025 C 
HETATM    4  C   UNL     1      13.185  -0.228  23.363  1.00  0.00     0.054 C 
HETATM    5  C   UNL     1      12.746  -1.173  22.686  1.00  0.00    -0.025 C 
HETATM    6  C   UNL     1      11.822  -1.709  22.484  1.00  0.00    -0.000 C 
ENDROOT
BRANCH   1   7
HETATM    7  C   UNL     1       9.417  -1.994  23.540  1.00  0.00     0.021 C 
BRANCH   7   8
HETATM    8  C   UNL     1       8.945  -2.897  24.154  1.00  0.00     0.098 C 
HETATM    9  N   UNL     1       8.120  -3.543  24.700  1.00  0.00    -0.296 N 
ATOM     10  HN  UNL     1       7.234  -3.600  24.198  1.00  0.00     0.177 HD
BRANCH   9  11
HETATM   11  S   UNL     1       8.142  -4.359  26.109  1.00  0.00     0.226 S 
HETATM   12  C   UNL     1       6.714  -4.829  26.365  1.00  0.00     0.186 C 
HETATM   13  O   UNL     1       9.040  -5.489  26.019  1.00  0.00    -0.206 OA
HETATM   14  O   UNL     1       8.575  -3.477  27.182  1.00  0.00    -0.206 OA
ENDBRANCH   9  11
ENDBRANCH   7   8
ENDBRANCH   1   7
BRANCH   1  15
HETATM   15  C   UNL     1       9.730  -0.567  22.365  1.00  0.00    -0.061 C 
BRANCH  15  16
HETATM   16  C   UNL     1       9.041   0.065  21.379  1.00  0.00     0.290 C 
HETATM   17  O   UNL     1       9.521   1.024  20.943  1.00  0.00    -0.259 OA
HETATM   18  N   UNL     1       7.895  -0.559  21.105  1.00  0.00    -0.317 N 
ATOM     19  HN  UNL     1       7.585  -1.375  21.633  1.00  0.00     0.169 HD
BRANCH  18  20
HETATM   20  C   UNL     1       7.221  -0.085  20.162  1.00  0.00     0.059 A 
HETATM   21  C   UNL     1       7.200   0.034  18.873  1.00  0.00     0.155 A 
HETATM   22  N   UNL     1       6.777   0.296  17.767  1.00  0.00    -0.400 N 
HETATM   23  C   UNL     1       5.681   0.794  18.254  1.00  0.00     0.130 A 
ATOM     24  HN  UNL     1       7.141   0.173  16.822  1.00  0.00     0.154 HD
HETATM   25  C   UNL     1       5.281   0.911  19.400  1.00  0.00     0.026 A 
HETATM   26  C   UNL     1       5.774   0.599  20.544  1.00  0.00     0.057 A 
HETATM   27 CL   UNL     1       5.286   0.759  22.020  1.00  0.00    -0.082 Cl
ENDBRANCH  18  20
ENDBRANCH  15  16
ENDBRANCH   1  15
TORSDOF 6
