stable:False satoms:4 tatoms:24 sratio:0.16666666666666666
  -OEChem-07092417463D

 24 26  0     1  0  0  0  0  0999 V2000
    6.7144   -4.8290   26.3647 C   0  0  0  0  0  0  0  0  0  0  0  0
    8.1416   -4.3591   26.1091 S   0  0  0  0  0  0  0  0  0  0  0  0
    9.0401   -5.4889   26.0192 O   0  0  0  0  0  0  0  0  0  0  0  0
    8.5753   -3.4770   27.1821 O   0  0  0  0  0  0  0  0  0  0  0  0
    8.1198   -3.5430   24.6997 N   0  0  0  0  0  0  0  0  0  0  0  0
    8.9446   -2.8968   24.1541 C   0  0  0  0  0  0  0  0  0  0  0  0
    9.4168   -1.9944   23.5404 C   0  0  0  0  0  0  0  0  0  0  0  0
   10.3225   -1.0968   23.2651 C   0  0  1  0  0  0  0  0  0  0  0  0
   11.0811   -0.0493   24.2969 C   0  0  0  0  0  0  0  0  0  0  0  0
   12.0689    0.2832   24.3183 C   0  0  0  0  0  0  0  0  0  0  0  0
   13.1848   -0.2276   23.3633 C   0  0  0  0  0  0  0  0  0  0  0  0
   12.7457   -1.1725   22.6857 C   0  0  0  0  0  0  0  0  0  0  0  0
   11.8218   -1.7094   22.4837 C   0  0  0  0  0  0  0  0  0  0  0  0
    9.7297   -0.5667   22.3654 C   0  0  0  0  0  0  0  0  0  0  0  0
    9.0407    0.0645   21.3793 C   0  0  0  0  0  0  0  0  0  0  0  0
    9.5214    1.0237   20.9434 O   0  0  0  0  0  0  0  0  0  0  0  0
    7.8948   -0.5593   21.1054 N   0  0  0  0  0  0  0  0  0  0  0  0
    7.2206   -0.0846   20.1620 C   0  0  0  0  0  0  0  0  0  0  0  0
    7.2001    0.0337   18.8728 C   0  0  0  0  0  0  0  0  0  0  0  0
    6.7772    0.2960   17.7675 N   0  0  0  0  0  0  0  0  0  0  0  0
    5.6806    0.7940   18.2540 C   0  0  0  0  0  0  0  0  0  0  0  0
    5.2812    0.9111   19.4002 C   0  0  0  0  0  0  0  0  0  0  0  0
    5.7744    0.5993   20.5440 C   0  0  0  0  0  0  0  0  0  0  0  0
    5.2860    0.7588   22.0202 Cl  0  0  0  0  0  0  0  0  0  0  0  0
 20 21  2  0  0  0  0
 19 20  1  0  0  0  0
 19 21  1  0  0  0  0
 21 22  1  0  0  0  0
 18 19  2  0  0  0  0
 22 23  2  0  0  0  0
 18 23  1  0  0  0  0
 17 18  1  0  0  0  0
 23 24  1  0  0  0  0
 15 16  2  0  0  0  0
 15 17  1  0  0  0  0
 14 15  1  0  0  0  0
  8 14  1  0  0  0  0
 12 13  1  0  0  0  0
  8 13  1  0  0  0  0
 11 12  2  0  0  0  0
  7  8  1  0  0  0  0
  8  9  1  0  0  0  0
 10 11  1  0  0  0  0
  6  7  3  0  0  0  0
  5  6  1  0  0  0  0
  9 10  2  0  0  0  0
  2  5  1  0  0  0  0
  2  3  2  0  0  0  0
  1  2  1  0  0  0  0
  2  4  2  0  0  0  0
M  END
> <Shapegauss>
-286.469177

$$$$
