MODEL 1
REMARK VINA RESULT:    -7.425      0.000      0.000
REMARK INTER + INTRA:         -10.565
REMARK INTER:                  -9.595
REMARK INTRA:                  -0.970
REMARK UNBOUND:                -0.970
REMARK  5 active torsions:
REMARK  status: ('A' for Active; 'I' for Inactive)
REMARK    1  A    between atoms: S_2  and  N_5 
REMARK    2  A    between atoms: N_5  and  C_7 
REMARK    3  A    between atoms: C_7  and  C_8 
REMARK    4  A    between atoms: C_16  and  C_17 
REMARK       I    between atoms: C_17  and  N_19 
REMARK    5  A    between atoms: N_19  and  C_21 
ROOT
HETATM    1  C   UNL     1       8.915  -2.385  23.008  1.00  0.00     0.041 A 
HETATM    2  C   UNL     1       9.916  -1.425  23.105  1.00  0.00     0.080 A 
HETATM    3  C   UNL     1      10.157  -0.614  24.398  1.00  0.00     0.000 C 
HETATM    4  C   UNL     1      11.117  -0.234  24.645  1.00  0.00     0.015 C 
HETATM    5  C   UNL     1      12.195  -0.464  24.161  1.00  0.00     0.087 C 
HETATM    6  N   UNL     1      12.372  -1.235  23.215  1.00  0.00    -0.377 N 
ATOM      7  HN  UNL     1      13.262  -1.499  22.792  1.00  0.00     0.164 HD
HETATM    8  C   UNL     1      11.362  -1.581  22.921  1.00  0.00     0.085 C 
HETATM    9  C   UNL     1       9.150  -1.009  22.261  1.00  0.00     0.050 A 
ENDROOT
BRANCH   9  10
HETATM   10  C   UNL     1       8.633  -0.049  21.295  1.00  0.00     0.256 C 
HETATM   11  O   UNL     1       9.239   0.921  21.063  1.00  0.00    -0.268 OA
HETATM   12  N   UNL     1       7.474  -0.471  20.807  1.00  0.00    -0.308 N 
ATOM     13  HN  UNL     1       7.047  -1.318  21.181  1.00  0.00     0.170 HD
BRANCH  12  14
HETATM   14  C   UNL     1       6.882   0.183  19.861  1.00  0.00     0.123 A 
HETATM   15  N   UNL     1       7.334   0.236  18.556  1.00  0.00    -0.286 N 
HETATM   16  N   UNL     1       6.787   0.836  17.765  1.00  0.00    -0.310 N 
ATOM     17  HN  UNL     1       8.178  -0.275  18.299  1.00  0.00     0.188 HD
HETATM   18  C   UNL     1       5.532   1.285  18.627  1.00  0.00     0.111 A 
ATOM     19  HN  UNL     1       7.027   1.029  16.793  1.00  0.00     0.186 HD
HETATM   20  C   UNL     1       5.671   0.848  19.928  1.00  0.00     0.068 A 
ENDBRANCH  12  14
ENDBRANCH   9  10
BRANCH   1  21
HETATM   21  C   UNL     1       8.343  -3.419  23.280  1.00  0.00    -0.021 C 
BRANCH  21  22
HETATM   22  N   UNL     1       7.878  -4.473  23.315  1.00  0.00    -0.236 N 
ATOM     23  HN  UNL     1       8.307  -5.101  23.995  1.00  0.00     0.189 HD
BRANCH  22  24
HETATM   24  S   UNL     1       6.671  -5.127  22.479  1.00  0.00     0.327 S 
HETATM   25 CL   UNL     1       5.718  -3.615  21.757  1.00  0.00     0.042 Cl
HETATM   26  O   UNL     1       7.184  -5.871  21.365  1.00  0.00    -0.188 OA
HETATM   27  O   UNL     1       5.763  -5.845  23.298  1.00  0.00    -0.188 OA
ENDBRANCH  22  24
ENDBRANCH  21  22
ENDBRANCH   1  21
TORSDOF 5
ENDMDL
MODEL 2
REMARK VINA RESULT:    -7.085      2.151      2.156
REMARK INTER + INTRA:         -10.125
REMARK INTER:                  -9.323
REMARK INTRA:                  -0.803
REMARK UNBOUND:                -0.970
REMARK  5 active torsions:
REMARK  status: ('A' for Active; 'I' for Inactive)
REMARK    1  A    between atoms: S_2  and  N_5 
REMARK    2  A    between atoms: N_5  and  C_7 
REMARK    3  A    between atoms: C_7  and  C_8 
REMARK    4  A    between atoms: C_16  and  C_17 
REMARK       I    between atoms: C_17  and  N_19 
REMARK    5  A    between atoms: N_19  and  C_21 
ROOT
HETATM    1  C   UNL     1       9.335  -2.171  23.498  1.00  0.00     0.041 A 
HETATM    2  C   UNL     1      10.383  -1.264  23.391  1.00  0.00     0.080 A 
HETATM    3  C   UNL     1      10.754  -0.295  24.535  1.00  0.00     0.000 C 
HETATM    4  C   UNL     1      11.745   0.062  24.663  1.00  0.00     0.015 C 
HETATM    5  C   UNL     1      12.774  -0.293  24.148  1.00  0.00     0.087 C 
HETATM    6  N   UNL     1      12.847  -1.198  23.314  1.00  0.00    -0.377 N 
ATOM      7  HN  UNL     1      13.691  -1.568  22.877  1.00  0.00     0.164 HD
HETATM    8  C   UNL     1      11.803  -1.525  23.138  1.00  0.00     0.085 C 
HETATM    9  C   UNL     1       9.578  -0.929  22.547  1.00  0.00     0.050 A 
ENDROOT
BRANCH   9  10
HETATM   10  C   UNL     1       9.038  -0.087  21.488  1.00  0.00     0.256 C 
HETATM   11  O   UNL     1       9.674   0.798  21.073  1.00  0.00    -0.268 OA
HETATM   12  N   UNL     1       7.824  -0.500  21.151  1.00  0.00    -0.308 N 
ATOM     13  HN  UNL     1       7.383  -1.255  21.676  1.00  0.00     0.170 HD
BRANCH  12  14
HETATM   14  C   UNL     1       7.193   0.048  20.164  1.00  0.00     0.123 A 
HETATM   15  N   UNL     1       7.586  -0.055  18.842  1.00  0.00    -0.286 N 
HETATM   16  N   UNL     1       7.007   0.456  18.012  1.00  0.00    -0.310 N 
ATOM     17  HN  UNL     1       8.414  -0.603  18.609  1.00  0.00     0.188 HD
HETATM   18  C   UNL     1       5.796   1.017  18.871  1.00  0.00     0.111 A 
ATOM     19  HN  UNL     1       7.205   0.533  17.014  1.00  0.00     0.186 HD
HETATM   20  C   UNL     1       5.992   0.731  20.207  1.00  0.00     0.068 A 
ENDBRANCH  12  14
ENDBRANCH   9  10
BRANCH   1  21
HETATM   21  C   UNL     1       8.737  -3.124  23.952  1.00  0.00    -0.021 C 
BRANCH  21  22
HETATM   22  N   UNL     1       8.044  -3.857  24.510  1.00  0.00    -0.236 N 
ATOM     23  HN  UNL     1       7.594  -4.550  23.911  1.00  0.00     0.189 HD
BRANCH  22  24
HETATM   24  S   UNL     1       7.665  -3.979  26.067  1.00  0.00     0.327 S 
HETATM   25 CL   UNL     1       6.599  -5.581  26.173  1.00  0.00     0.042 Cl
HETATM   26  O   UNL     1       8.845  -4.206  26.850  1.00  0.00    -0.188 OA
HETATM   27  O   UNL     1       6.857  -2.905  26.518  1.00  0.00    -0.188 OA
ENDBRANCH  22  24
ENDBRANCH  21  22
ENDBRANCH   1  21
TORSDOF 5
ENDMDL
MODEL 3
REMARK VINA RESULT:    -7.074      3.158      5.700
REMARK INTER + INTRA:         -10.112
REMARK INTER:                  -9.137
REMARK INTRA:                  -0.975
REMARK UNBOUND:                -0.970
REMARK  5 active torsions:
REMARK  status: ('A' for Active; 'I' for Inactive)
REMARK    1  A    between atoms: S_2  and  N_5 
REMARK    2  A    between atoms: N_5  and  C_7 
REMARK    3  A    between atoms: C_7  and  C_8 
REMARK    4  A    between atoms: C_16  and  C_17 
REMARK       I    between atoms: C_17  and  N_19 
REMARK    5  A    between atoms: N_19  and  C_21 
ROOT
HETATM    1  C   UNL     1       9.640  -0.763  22.350  1.00  0.00     0.041 A 
HETATM    2  C   UNL     1      10.665  -0.867  23.284  1.00  0.00     0.080 A 
HETATM    3  C   UNL     1      11.968  -1.646  22.994  1.00  0.00     0.000 C 
HETATM    4  C   UNL     1      12.885  -1.388  23.460  1.00  0.00     0.015 C 
HETATM    5  C   UNL     1      13.186  -0.418  24.108  1.00  0.00     0.087 C 
HETATM    6  N   UNL     1      12.408   0.504  24.362  1.00  0.00    -0.377 N 
ATOM      7  HN  UNL     1      12.616   1.366  24.867  1.00  0.00     0.164 HD
HETATM    8  C   UNL     1      11.435   0.202  23.927  1.00  0.00     0.085 C 
HETATM    9  C   UNL     1       9.715  -1.434  23.782  1.00  0.00     0.050 A 
ENDROOT
BRANCH   9  10
HETATM   10  C   UNL     1       9.016  -2.214  24.795  1.00  0.00     0.256 C 
HETATM   11  O   UNL     1       8.694  -1.705  25.794  1.00  0.00    -0.268 OA
HETATM   12  N   UNL     1       8.855  -3.462  24.379  1.00  0.00    -0.308 N 
ATOM     13  HN  UNL     1       9.271  -3.759  23.497  1.00  0.00     0.170 HD
BRANCH  12  14
HETATM   14  C   UNL     1       8.174  -4.307  25.084  1.00  0.00     0.123 A 
HETATM   15  N   UNL     1       8.655  -4.933  26.219  1.00  0.00    -0.286 N 
HETATM   16  N   UNL     1       8.024  -5.678  26.795  1.00  0.00    -0.310 N 
ATOM     17  HN  UNL     1       9.597  -4.719  26.545  1.00  0.00     0.188 HD
HETATM   18  C   UNL     1       6.671  -5.532  25.978  1.00  0.00     0.111 A 
ATOM     19  HN  UNL     1       8.256  -6.266  27.595  1.00  0.00     0.186 HD
HETATM   20  C   UNL     1       6.849  -4.666  24.918  1.00  0.00     0.068 A 
ENDBRANCH  12  14
ENDBRANCH   9  10
BRANCH   1  21
HETATM   21  C   UNL     1       9.126  -0.432  21.303  1.00  0.00    -0.021 C 
BRANCH  21  22
HETATM   22  N   UNL     1       8.586  -0.358  20.286  1.00  0.00    -0.236 N 
ATOM     23  HN  UNL     1       9.113  -0.740  19.501  1.00  0.00     0.189 HD
BRANCH  22  24
HETATM   24  S   UNL     1       7.149   0.243  19.891  1.00  0.00     0.327 S 
HETATM   25 CL   UNL     1       6.882   1.692  21.134  1.00  0.00     0.042 Cl
HETATM   26  O   UNL     1       7.194   0.818  18.578  1.00  0.00    -0.188 OA
HETATM   27  O   UNL     1       6.095  -0.684  20.093  1.00  0.00    -0.188 OA
ENDBRANCH  22  24
ENDBRANCH  21  22
ENDBRANCH   1  21
TORSDOF 5
ENDMDL
MODEL 4
REMARK VINA RESULT:    -7.036      3.891      5.892
REMARK INTER + INTRA:         -10.063
REMARK INTER:                  -9.092
REMARK INTRA:                  -0.971
REMARK UNBOUND:                -0.970
REMARK  5 active torsions:
REMARK  status: ('A' for Active; 'I' for Inactive)
REMARK    1  A    between atoms: S_2  and  N_5 
REMARK    2  A    between atoms: N_5  and  C_7 
REMARK    3  A    between atoms: C_7  and  C_8 
REMARK    4  A    between atoms: C_16  and  C_17 
REMARK       I    between atoms: C_17  and  N_19 
REMARK    5  A    between atoms: N_19  and  C_21 
ROOT
HETATM    1  C   UNL     1       7.563  -4.995  25.283  1.00  0.00     0.041 A 
HETATM    2  C   UNL     1       7.061  -4.882  23.991  1.00  0.00     0.080 A 
HETATM    3  C   UNL     1       7.503  -5.827  22.851  1.00  0.00     0.000 C 
HETATM    4  C   UNL     1       6.861  -6.052  22.036  1.00  0.00     0.015 C 
HETATM    5  C   UNL     1       5.688  -5.830  21.882  1.00  0.00     0.087 C 
HETATM    6  N   UNL     1       4.985  -5.250  22.713  1.00  0.00    -0.377 N 
ATOM      7  HN  UNL     1       3.983  -5.072  22.656  1.00  0.00     0.164 HD
HETATM    8  C   UNL     1       5.671  -4.962  23.534  1.00  0.00     0.085 C 
HETATM    9  C   UNL     1       7.666  -3.850  24.194  1.00  0.00     0.050 A 
ENDROOT
BRANCH   9  10
HETATM   10  C   UNL     1       8.222  -2.548  23.852  1.00  0.00     0.256 C 
HETATM   11  O   UNL     1       7.624  -1.580  24.111  1.00  0.00    -0.268 OA
HETATM   12  N   UNL     1       9.399  -2.694  23.260  1.00  0.00    -0.308 N 
ATOM     13  HN  UNL     1       9.742  -3.629  23.043  1.00  0.00     0.170 HD
BRANCH  12  14
HETATM   14  C   UNL     1      10.115  -1.661  22.955  1.00  0.00     0.123 A 
HETATM   15  N   UNL     1       9.971  -0.938  21.785  1.00  0.00    -0.286 N 
HETATM   16  N   UNL     1      10.634  -0.047  21.556  1.00  0.00    -0.310 N 
ATOM     17  HN  UNL     1       9.254  -1.212  21.114  1.00  0.00     0.188 HD
HETATM   18  C   UNL     1      11.431   0.021  22.927  1.00  0.00     0.111 A 
ATOM     19  HN  UNL     1      10.699   0.535  20.721  1.00  0.00     0.186 HD
HETATM   20  C   UNL     1      11.058  -1.028  23.743  1.00  0.00     0.068 A 
ENDBRANCH  12  14
ENDBRANCH   9  10
BRANCH   1  21
HETATM   21  C   UNL     1       7.756  -5.533  26.353  1.00  0.00    -0.021 C 
BRANCH  21  22
HETATM   22  N   UNL     1       7.694  -6.047  27.383  1.00  0.00    -0.236 N 
ATOM     23  HN  UNL     1       8.562  -6.489  27.686  1.00  0.00     0.189 HD
BRANCH  22  24
HETATM   24  S   UNL     1       6.477  -6.189  28.424  1.00  0.00     0.327 S 
HETATM   25 CL   UNL     1       4.910  -6.319  27.309  1.00  0.00     0.042 Cl
HETATM   26  O   UNL     1       6.583  -7.422  29.147  1.00  0.00    -0.188 OA
HETATM   27  O   UNL     1       6.320  -5.039  29.239  1.00  0.00    -0.188 OA
ENDBRANCH  22  24
ENDBRANCH  21  22
ENDBRANCH   1  21
TORSDOF 5
ENDMDL
MODEL 5
REMARK VINA RESULT:    -6.921     14.022     16.748
REMARK INTER + INTRA:          -9.913
REMARK INTER:                  -9.172
REMARK INTRA:                  -0.741
REMARK UNBOUND:                -0.970
REMARK  5 active torsions:
REMARK  status: ('A' for Active; 'I' for Inactive)
REMARK    1  A    between atoms: S_2  and  N_5 
REMARK    2  A    between atoms: N_5  and  C_7 
REMARK    3  A    between atoms: C_7  and  C_8 
REMARK    4  A    between atoms: C_16  and  C_17 
REMARK       I    between atoms: C_17  and  N_19 
REMARK    5  A    between atoms: N_19  and  C_21 
ROOT
HETATM    1  C   UNL     1      23.332  -3.573  25.037  1.00  0.00     0.041 A 
HETATM    2  C   UNL     1      22.560  -2.419  25.101  1.00  0.00     0.080 A 
HETATM    3  C   UNL     1      22.750  -1.245  24.115  1.00  0.00     0.000 C 
HETATM    4  C   UNL     1      21.948  -0.599  23.859  1.00  0.00     0.015 C 
HETATM    5  C   UNL     1      20.767  -0.697  24.074  1.00  0.00     0.087 C 
HETATM    6  N   UNL     1      20.258  -1.639  24.685  1.00  0.00    -0.377 N 
ATOM      7  HN  UNL     1      19.266  -1.797  24.861  1.00  0.00     0.164 HD
HETATM    8  C   UNL     1      21.104  -2.280  25.004  1.00  0.00     0.085 C 
HETATM    9  C   UNL     1      23.186  -2.447  26.140  1.00  0.00     0.050 A 
ENDROOT
BRANCH   9  10
HETATM   10  C   UNL     1      23.641  -1.945  27.430  1.00  0.00     0.256 C 
HETATM   11  O   UNL     1      23.986  -0.835  27.528  1.00  0.00    -0.268 OA
HETATM   12  N   UNL     1      23.584  -2.907  28.340  1.00  0.00    -0.308 N 
ATOM     13  HN  UNL     1      23.325  -3.853  28.061  1.00  0.00     0.170 HD
BRANCH  12  14
HETATM   14  C   UNL     1      23.855  -2.656  29.580  1.00  0.00     0.123 A 
HETATM   15  N   UNL     1      22.900  -2.362  30.536  1.00  0.00    -0.286 N 
HETATM   16  N   UNL     1      23.189  -2.134  31.609  1.00  0.00    -0.310 N 
ATOM     17  HN  UNL     1      21.916  -2.349  30.271  1.00  0.00     0.188 HD
HETATM   18  C   UNL     1      24.747  -2.420  31.506  1.00  0.00     0.111 A 
ATOM     19  HN  UNL     1      22.620  -1.835  32.400  1.00  0.00     0.186 HD
HETATM   20  C   UNL     1      25.086  -2.729  30.205  1.00  0.00     0.068 A 
ENDBRANCH  12  14
ENDBRANCH   9  10
BRANCH   1  21
HETATM   21  C   UNL     1      23.760  -4.593  24.539  1.00  0.00    -0.021 C 
BRANCH  21  22
HETATM   22  N   UNL     1      24.032  -5.673  24.242  1.00  0.00    -0.236 N 
ATOM     23  HN  UNL     1      24.077  -5.835  23.236  1.00  0.00     0.189 HD
BRANCH  22  24
HETATM   24  S   UNL     1      24.352  -6.970  25.137  1.00  0.00     0.327 S 
HETATM   25 CL   UNL     1      26.276  -7.082  25.139  1.00  0.00     0.042 Cl
HETATM   26  O   UNL     1      23.942  -6.751  26.493  1.00  0.00    -0.188 OA
HETATM   27  O   UNL     1      23.861  -8.168  24.558  1.00  0.00    -0.188 OA
ENDBRANCH  22  24
ENDBRANCH  21  22
ENDBRANCH   1  21
TORSDOF 5
ENDMDL
MODEL 6
REMARK VINA RESULT:    -6.804      3.088      6.287
REMARK INTER + INTRA:          -9.763
REMARK INTER:                  -8.819
REMARK INTRA:                  -0.944
REMARK UNBOUND:                -0.970
REMARK  5 active torsions:
REMARK  status: ('A' for Active; 'I' for Inactive)
REMARK    1  A    between atoms: S_2  and  N_5 
REMARK    2  A    between atoms: N_5  and  C_7 
REMARK    3  A    between atoms: C_7  and  C_8 
REMARK    4  A    between atoms: C_16  and  C_17 
REMARK       I    between atoms: C_17  and  N_19 
REMARK    5  A    between atoms: N_19  and  C_21 
ROOT
HETATM    1  C   UNL     1       8.017  -1.618  22.588  1.00  0.00     0.041 A 
HETATM    2  C   UNL     1       9.157  -1.649  23.383  1.00  0.00     0.080 A 
HETATM    3  C   UNL     1      10.567  -1.874  22.792  1.00  0.00     0.000 C 
HETATM    4  C   UNL     1      11.435  -1.480  23.260  1.00  0.00     0.015 C 
HETATM    5  C   UNL     1      11.546  -0.681  24.154  1.00  0.00     0.087 C 
HETATM    6  N   UNL     1      10.588  -0.152  24.723  1.00  0.00    -0.377 N 
ATOM      7  HN  UNL     1      10.620   0.558  25.454  1.00  0.00     0.164 HD
HETATM    8  C   UNL     1       9.685  -0.612  24.275  1.00  0.00     0.085 C 
HETATM    9  C   UNL     1       8.489  -2.596  23.740  1.00  0.00     0.050 A 
ENDROOT
BRANCH   9  10
HETATM   10  C   UNL     1       8.195  -3.800  24.506  1.00  0.00     0.256 C 
HETATM   11  O   UNL     1       8.528  -4.840  24.098  1.00  0.00    -0.268 OA
HETATM   12  N   UNL     1       7.549  -3.485  25.621  1.00  0.00    -0.308 N 
ATOM     13  HN  UNL     1       7.269  -2.519  25.787  1.00  0.00     0.170 HD
BRANCH  12  14
HETATM   14  C   UNL     1       7.271  -4.393  26.499  1.00  0.00     0.123 A 
HETATM   15  N   UNL     1       8.153  -5.379  26.898  1.00  0.00    -0.286 N 
HETATM   16  N   UNL     1       7.857  -6.164  27.662  1.00  0.00    -0.310 N 
ATOM     17  HN  UNL     1       9.091  -5.402  26.498  1.00  0.00     0.188 HD
HETATM   18  C   UNL     1       6.422  -5.601  28.042  1.00  0.00     0.111 A 
ATOM     19  HN  UNL     1       8.360  -6.983  28.002  1.00  0.00     0.186 HD
HETATM   20  C   UNL     1       6.124  -4.501  27.264  1.00  0.00     0.068 A 
ENDBRANCH  12  14
ENDBRANCH   9  10
BRANCH   1  21
HETATM   21  C   UNL     1       7.280  -1.191  21.725  1.00  0.00    -0.021 C 
BRANCH  21  22
HETATM   22  N   UNL     1       6.456  -0.688  21.095  1.00  0.00    -0.236 N 
ATOM     23  HN  UNL     1       5.507  -0.971  21.339  1.00  0.00     0.189 HD
BRANCH  22  24
HETATM   24  S   UNL     1       6.542   0.381  19.898  1.00  0.00     0.327 S 
HETATM   25 CL   UNL     1       5.755  -0.527  18.391  1.00  0.00     0.042 Cl
HETATM   26  O   UNL     1       5.713   1.516  20.184  1.00  0.00    -0.188 OA
HETATM   27  O   UNL     1       7.877   0.701  19.545  1.00  0.00    -0.188 OA
ENDBRANCH  22  24
ENDBRANCH  21  22
ENDBRANCH   1  21
TORSDOF 5
ENDMDL
MODEL 7
REMARK VINA RESULT:    -6.756      3.673      6.609
REMARK INTER + INTRA:          -9.701
REMARK INTER:                  -8.701
REMARK INTRA:                  -1.001
REMARK UNBOUND:                -0.970
REMARK  5 active torsions:
REMARK  status: ('A' for Active; 'I' for Inactive)
REMARK    1  A    between atoms: S_2  and  N_5 
REMARK    2  A    between atoms: N_5  and  C_7 
REMARK    3  A    between atoms: C_7  and  C_8 
REMARK    4  A    between atoms: C_16  and  C_17 
REMARK       I    between atoms: C_17  and  N_19 
REMARK    5  A    between atoms: N_19  and  C_21 
ROOT
HETATM    1  C   UNL     1       8.954   0.837  21.375  1.00  0.00     0.041 A 
HETATM    2  C   UNL     1       7.944   0.208  20.656  1.00  0.00     0.080 A 
HETATM    3  C   UNL     1       6.467   0.653  20.749  1.00  0.00     0.000 C 
HETATM    4  C   UNL     1       5.793   0.514  19.942  1.00  0.00     0.015 C 
HETATM    5  C   UNL     1       5.999   0.198  18.798  1.00  0.00     0.087 C 
HETATM    6  N   UNL     1       7.120  -0.044  18.346  1.00  0.00    -0.377 N 
ATOM      7  HN  UNL     1       7.360  -0.274  17.382  1.00  0.00     0.164 HD
HETATM    8  C   UNL     1       7.813   0.042  19.206  1.00  0.00     0.085 C 
HETATM    9  C   UNL     1       8.374  -0.636  21.415  1.00  0.00     0.050 A 
ENDROOT
BRANCH   9  10
HETATM   10  C   UNL     1       8.424  -1.943  22.057  1.00  0.00     0.256 C 
HETATM   11  O   UNL     1       9.382  -2.263  22.640  1.00  0.00    -0.268 OA
HETATM   12  N   UNL     1       7.288  -2.596  21.852  1.00  0.00    -0.308 N 
ATOM     13  HN  UNL     1       6.575  -2.190  21.247  1.00  0.00     0.170 HD
BRANCH  12  14
HETATM   14  C   UNL     1       7.078  -3.742  22.412  1.00  0.00     0.123 A 
HETATM   15  N   UNL     1       7.702  -4.916  22.031  1.00  0.00    -0.286 N 
HETATM   16  N   UNL     1       7.473  -5.901  22.545  1.00  0.00    -0.310 N 
ATOM     17  HN  UNL     1       8.382  -4.896  21.272  1.00  0.00     0.188 HD
HETATM   18  C   UNL     1       6.508  -5.360  23.684  1.00  0.00     0.111 A 
ATOM     19  HN  UNL     1       7.790  -6.847  22.338  1.00  0.00     0.186 HD
HETATM   20  C   UNL     1       6.302  -4.005  23.526  1.00  0.00     0.068 A 
ENDBRANCH  12  14
ENDBRANCH   9  10
BRANCH   1  21
HETATM   21  C   UNL     1       9.676   1.757  21.698  1.00  0.00    -0.021 C 
BRANCH  21  22
HETATM   22  N   UNL     1      10.440   2.474  22.178  1.00  0.00    -0.236 N 
ATOM     23  HN  UNL     1      10.920   3.083  21.516  1.00  0.00     0.189 HD
BRANCH  22  24
HETATM   24  S   UNL     1      10.881   2.680  23.710  1.00  0.00     0.327 S 
HETATM   25 CL   UNL     1      11.945   1.123  24.112  1.00  0.00     0.042 Cl
HETATM   26  O   UNL     1      11.743   3.820  23.830  1.00  0.00    -0.188 OA
HETATM   27  O   UNL     1       9.779   2.678  24.602  1.00  0.00    -0.188 OA
ENDBRANCH  22  24
ENDBRANCH  21  22
ENDBRANCH   1  21
TORSDOF 5
ENDMDL
MODEL 8
REMARK VINA RESULT:    -6.534      4.484      7.901
REMARK INTER + INTRA:          -9.414
REMARK INTER:                  -8.465
REMARK INTRA:                  -0.949
REMARK UNBOUND:                -0.970
REMARK  5 active torsions:
REMARK  status: ('A' for Active; 'I' for Inactive)
REMARK    1  A    between atoms: S_2  and  N_5 
REMARK    2  A    between atoms: N_5  and  C_7 
REMARK    3  A    between atoms: C_7  and  C_8 
REMARK    4  A    between atoms: C_16  and  C_17 
REMARK       I    between atoms: C_17  and  N_19 
REMARK    5  A    between atoms: N_19  and  C_21 
ROOT
HETATM    1  C   UNL     1       8.856  -2.886  24.043  1.00  0.00     0.041 A 
HETATM    2  C   UNL     1       7.721  -3.671  23.869  1.00  0.00     0.080 A 
HETATM    3  C   UNL     1       6.324  -3.057  23.629  1.00  0.00     0.000 C 
HETATM    4  C   UNL     1       5.576  -3.574  23.081  1.00  0.00     0.015 C 
HETATM    5  C   UNL     1       5.652  -4.567  22.403  1.00  0.00     0.087 C 
HETATM    6  N   UNL     1       6.695  -5.201  22.230  1.00  0.00    -0.377 N 
ATOM      7  HN  UNL     1       6.828  -6.020  21.637  1.00  0.00     0.164 HD
HETATM    8  C   UNL     1       7.458  -4.694  22.853  1.00  0.00     0.085 C 
HETATM    9  C   UNL     1       8.100  -3.897  24.999  1.00  0.00     0.050 A 
ENDROOT
BRANCH   9  10
HETATM   10  C   UNL     1       8.036  -4.495  26.326  1.00  0.00     0.256 C 
HETATM   11  O   UNL     1       8.999  -4.547  26.983  1.00  0.00    -0.268 OA
HETATM   12  N   UNL     1       6.803  -4.912  26.580  1.00  0.00    -0.308 N 
ATOM     13  HN  UNL     1       6.091  -4.854  25.853  1.00  0.00     0.170 HD
BRANCH  12  14
HETATM   14  C   UNL     1       6.497  -5.392  27.742  1.00  0.00     0.123 A 
HETATM   15  N   UNL     1       7.091  -6.509  28.298  1.00  0.00    -0.286 N 
HETATM   16  N   UNL     1       6.778  -6.900  29.316  1.00  0.00    -0.310 N 
ATOM     17  HN  UNL     1       7.827  -6.992  27.783  1.00  0.00     0.188 HD
HETATM   18  C   UNL     1       5.757  -5.751  29.712  1.00  0.00     0.111 A 
ATOM     19  HN  UNL     1       7.064  -7.738  29.822  1.00  0.00     0.186 HD
HETATM   20  C   UNL     1       5.628  -4.853  28.672  1.00  0.00     0.068 A 
ENDBRANCH  12  14
ENDBRANCH   9  10
BRANCH   1  21
HETATM   21  C   UNL     1       9.709  -2.087  23.722  1.00  0.00    -0.021 C 
BRANCH  21  22
HETATM   22  N   UNL     1      10.674  -1.517  23.452  1.00  0.00    -0.236 N 
ATOM     23  HN  UNL     1      11.244  -1.968  22.736  1.00  0.00     0.189 HD
BRANCH  22  24
HETATM   24  S   UNL     1      11.279  -0.135  24.007  1.00  0.00     0.327 S 
HETATM   25 CL   UNL     1      13.170  -0.474  24.169  1.00  0.00     0.042 Cl
HETATM   26  O   UNL     1      11.120   0.905  23.032  1.00  0.00    -0.188 OA
HETATM   27  O   UNL     1      10.798   0.192  25.300  1.00  0.00    -0.188 OA
ENDBRANCH  22  24
ENDBRANCH  21  22
ENDBRANCH   1  21
TORSDOF 5
ENDMDL
MODEL 9
REMARK VINA RESULT:    -6.455     20.326     22.302
REMARK INTER + INTRA:          -9.311
REMARK INTER:                  -8.521
REMARK INTRA:                  -0.791
REMARK UNBOUND:                -0.970
REMARK  5 active torsions:
REMARK  status: ('A' for Active; 'I' for Inactive)
REMARK    1  A    between atoms: S_2  and  N_5 
REMARK    2  A    between atoms: N_5  and  C_7 
REMARK    3  A    between atoms: C_7  and  C_8 
REMARK    4  A    between atoms: C_16  and  C_17 
REMARK       I    between atoms: C_17  and  N_19 
REMARK    5  A    between atoms: N_19  and  C_21 
ROOT
HETATM    1  C   UNL     1       0.428 -17.379   8.282  1.00  0.00     0.041 A 
HETATM    2  C   UNL     1      -0.715 -16.612   8.090  1.00  0.00     0.080 A 
HETATM    3  C   UNL     1      -0.706 -15.315   7.251  1.00  0.00     0.000 C 
HETATM    4  C   UNL     1      -1.572 -14.976   6.741  1.00  0.00     0.015 C 
HETATM    5  C   UNL     1      -2.619 -15.532   6.527  1.00  0.00     0.087 C 
HETATM    6  N   UNL     1      -2.877 -16.676   6.905  1.00  0.00    -0.377 N 
ATOM      7  HN  UNL     1      -3.725 -17.211   6.719  1.00  0.00     0.164 HD
HETATM    8  C   UNL     1      -1.995 -17.003   7.490  1.00  0.00     0.085 C 
HETATM    9  C   UNL     1      -0.493 -16.567   9.282  1.00  0.00     0.050 A 
ENDROOT
BRANCH   9  10
HETATM   10  C   UNL     1      -0.707 -16.136  10.657  1.00  0.00     0.256 C 
HETATM   11  O   UNL     1      -1.547 -15.363  10.895  1.00  0.00    -0.268 OA
HETATM   12  N   UNL     1       0.154 -16.740  11.464  1.00  0.00    -0.308 N 
ATOM     13  HN  UNL     1       0.880 -17.339  11.071  1.00  0.00     0.170 HD
BRANCH  12  14
HETATM   14  C   UNL     1       0.082 -16.575  12.745  1.00  0.00     0.123 A 
HETATM   15  N   UNL     1      -1.093 -16.323  13.428  1.00  0.00    -0.286 N 
HETATM   16  N   UNL     1      -1.103 -16.171  14.551  1.00  0.00    -0.310 N 
ATOM     17  HN  UNL     1      -1.970 -16.272  12.910  1.00  0.00     0.188 HD
HETATM   18  C   UNL     1       0.425 -16.483  14.851  1.00  0.00     0.111 A 
ATOM     19  HN  UNL     1      -1.863 -15.911  15.180  1.00  0.00     0.186 HD
HETATM   20  C   UNL     1       1.100 -16.715  13.670  1.00  0.00     0.068 A 
ENDBRANCH  12  14
ENDBRANCH   9  10
BRANCH   1  21
HETATM   21  C   UNL     1       1.359 -18.083   7.950  1.00  0.00    -0.021 C 
BRANCH  21  22
HETATM   22  N   UNL     1       2.066 -18.916   7.583  1.00  0.00    -0.236 N 
ATOM     23  HN  UNL     1       2.217 -18.926   6.574  1.00  0.00     0.189 HD
BRANCH  22  24
HETATM   24  S   UNL     1       2.854 -20.065   8.384  1.00  0.00     0.327 S 
HETATM   25 CL   UNL     1       4.240 -19.119   9.332  1.00  0.00     0.042 Cl
HETATM   26  O   UNL     1       1.999 -20.659   9.371  1.00  0.00    -0.188 OA
HETATM   27  O   UNL     1       3.492 -20.993   7.522  1.00  0.00    -0.188 OA
ENDBRANCH  22  24
ENDBRANCH  21  22
ENDBRANCH   1  21
TORSDOF 5
ENDMDL
