REMARK  5 active torsions:
REMARK  status: ('A' for Active; 'I' for Inactive)
REMARK    1  A    between atoms: S_2  and  N_5 
REMARK    2  A    between atoms: N_5  and  C_7 
REMARK    3  A    between atoms: C_7  and  C_8 
REMARK    4  A    between atoms: C_16  and  C_17 
REMARK       I    between atoms: C_17  and  N_19 
REMARK    5  A    between atoms: N_19  and  C_21 
ROOT
HETATM    1  C   UNL     1       9.511  -1.939  23.565  1.00  0.00     0.041 A 
HETATM    2  C   UNL     1      10.565  -1.100  23.221  1.00  0.00     0.080 A 
HETATM    3  C   UNL     1      11.140  -0.055  24.203  1.00  0.00     0.000 C 
HETATM    4  C   UNL     1      12.152   0.260  24.150  1.00  0.00     0.015 C 
HETATM    5  C   UNL     1      13.078  -0.191  23.526  1.00  0.00     0.087 C 
HETATM    6  N   UNL     1      12.990  -1.168  22.779  1.00  0.00    -0.377 N 
ATOM      7  HN  UNL     1      13.744  -1.618  22.260  1.00  0.00     0.164 HD
HETATM    8  C   UNL     1      11.920  -1.455  22.789  1.00  0.00     0.085 C 
HETATM    9  C   UNL     1       9.656  -0.799  22.476  1.00  0.00     0.050 A 
ENDROOT
BRANCH   9  10
HETATM   10  C   UNL     1       8.995  -0.026  21.433  1.00  0.00     0.256 C 
HETATM   11  O   UNL     1       9.558   0.862  20.928  1.00  0.00    -0.268 OA
HETATM   12  N   UNL     1       7.774  -0.497  21.220  1.00  0.00    -0.308 N 
ATOM     13  HN  UNL     1       7.410  -1.243  21.812  1.00  0.00     0.170 HD
BRANCH  12  14
HETATM   14  C   UNL     1       7.041  -0.018  20.268  1.00  0.00     0.123 A 
HETATM   15  N   UNL     1       7.368  -0.093  18.927  1.00  0.00    -0.286 N 
HETATM   16  N   UNL     1       6.699   0.356  18.129  1.00  0.00    -0.310 N 
ATOM     17  HN  UNL     1       8.230  -0.562  18.649  1.00  0.00     0.188 HD
HETATM   18  C   UNL     1       5.490   0.807  19.054  1.00  0.00     0.111 A 
ATOM     19  HN  UNL     1       6.833   0.444  17.122  1.00  0.00     0.186 HD
HETATM   20  C   UNL     1       5.785   0.550  20.377  1.00  0.00     0.068 A 
ENDBRANCH  12  14
ENDBRANCH   9  10
BRANCH   1  21
HETATM   21  C   UNL     1       8.952  -2.816  24.189  1.00  0.00    -0.021 C 
BRANCH  21  22
HETATM   22  N   UNL     1       8.215  -3.539  24.702  1.00  0.00    -0.236 N 
ATOM     23  HN  UNL     1       7.360  -3.714  24.174  1.00  0.00     0.189 HD
BRANCH  22  24
HETATM   24  S   UNL     1       8.300  -4.319  26.105  1.00  0.00     0.327 S 
HETATM   25 CL   UNL     1       6.517  -4.998  26.380  1.00  0.00     0.042 Cl
HETATM   26  O   UNL     1       9.169  -5.454  25.991  1.00  0.00    -0.188 OA
HETATM   27  O   UNL     1       8.595  -3.458  27.192  1.00  0.00    -0.188 OA
ENDBRANCH  22  24
ENDBRANCH  21  22
ENDBRANCH   1  21
TORSDOF 5
