stable:False satoms:19 tatoms:24 sratio:0.7916666666666666
  -OEChem-07092417313D

 24 25  0     1  0  0  0  0  0999 V2000
    8.2631   -2.9193   23.5868 O   0  0  0  0  0  0  0  0  0  0  0  0
   10.9516   -3.0790   22.8768 S   0  0  0  0  0  0  0  0  0  0  0  0
    7.4125   -4.0493   21.3829 H   0  0  0  0  0  0  0  0  0  0  0  0
    7.4641   -1.7402   25.2780 H   0  0  0  0  0  0  0  0  0  0  0  0
    7.9452   -3.1105   21.2748 C   0  0  0  0  0  0  0  0  0  0  0  0
    7.9702   -2.4025   22.5387 C   0  0  0  0  0  0  0  0  0  0  0  0
    7.7318   -0.7114   25.1308 C   0  0  0  0  0  0  0  0  0  0  0  0
    8.5470   -0.3677   25.7159 H   0  0  0  0  0  0  0  0  0  0  0  0
   11.2997   -1.3959   22.4173 C   0  0  0  0  0  0  0  0  0  0  0  0
   10.3499   -0.4374   21.8039 C   0  0  3  0  0  0  0  0  0  0  0  0
   12.5058   -0.9168   22.5861 C   0  0  0  0  0  0  0  0  0  0  0  0
   12.6649    0.0143   23.0909 H   0  0  0  0  0  0  0  0  0  0  0  0
    7.4388   -1.1143   22.2420 C   0  0  0  0  0  0  0  0  0  0  0  0
   13.3520   -1.4258   22.2084 H   0  0  0  0  0  0  0  0  0  0  0  0
    7.1189    0.1568   24.3167 C   0  0  0  0  0  0  0  0  0  0  0  0
    6.8124    1.1104   24.6853 H   0  0  0  0  0  0  0  0  0  0  0  0
    6.1744    0.7126   22.0884 N   0  0  0  0  0  0  0  0  0  0  0  0
    9.2090    0.0485   21.7305 N   0  0  0  0  0  0  0  0  0  0  0  0
    7.2075   -2.0751   19.8386 S   0  0  0  0  0  0  0  0  0  0  0  0
    6.9272   -0.8487   20.9074 C   0  0  0  0  0  0  0  0  0  0  0  0
    6.1654    0.2218   20.8618 N   0  0  0  0  0  0  0  0  0  0  0  0
    6.8562   -0.0347   22.9254 C   0  0  0  0  0  0  0  0  0  0  0  0
   10.2643    0.3178   20.9031 O   0  0  0  0  0  0  0  0  0  0  0  0
    8.9522   -3.2436   20.9064 H   0  0  0  0  0  0  0  0  0  0  0  0
 19 20  1  0  0  0  0
  5 19  1  0  0  0  0
 20 21  1  0  0  0  0
 17 21  1  0  0  0  0
 18 23  1  0  0  0  0
 10 23  1  0  0  0  0
  5 24  1  0  0  0  0
 13 20  2  0  0  0  0
  3  5  1  0  0  0  0
  5  6  1  0  0  0  0
 10 18  1  0  0  0  0
  9 10  1  0  0  0  0
 17 22  2  0  0  0  0
 11 14  1  0  0  0  0
  6 13  1  0  0  0  0
 13 22  1  0  0  0  0
  9 11  2  0  0  0  0
  2  9  1  0  0  0  0
  1  6  2  0  0  0  0
 11 12  1  0  0  0  0
 15 22  1  0  0  0  0
 15 16  1  0  0  0  0
  7 15  2  0  0  0  0
  4  7  1  0  0  0  0
  7  8  1  0  0  0  0
M  END
> <Shapegauss>
-138.530548

$$$$
