REMARK  1 active torsions:
REMARK  status: ('A' for Active; 'I' for Inactive)
REMARK    1  A    between atoms: N_6  and  C_14 
ROOT
HETATM    1  C   UNL     1       7.258  -4.510  24.941  1.00  0.00     0.000 A 
HETATM    2  C   UNL     1       7.279  -3.418  25.837  1.00  0.00     0.000 A 
HETATM    3  C   UNL     1       7.517  -2.279  25.148  1.00  0.00     0.000 A 
HETATM    4  C   UNL     1       7.445  -4.012  23.683  1.00  0.00     0.000 A 
HETATM    5  C   UNL     1       7.545  -2.640  23.781  1.00  0.00     0.000 A 
ENDROOT
TORSDOF 1
