stable:False satoms:10 tatoms:24 sratio:0.4166666666666667
  -OEChem-07092417423D

 24 24  0     0  0  0  0  0  0999 V2000
    6.4884   -4.8903   26.5210 Cl  0  0  0  0  0  0  0  0  0  0  0  0
    8.2942   -4.4566   26.1339 S   0  0  0  0  0  0  0  0  0  0  0  0
    8.9976   -5.6606   25.9260 O   0  0  0  0  0  0  0  0  0  0  0  0
    8.7607   -3.6303   27.1903 O   0  0  0  0  0  0  0  0  0  0  0  0
    8.1052   -3.6646   24.7413 N   0  0  0  0  0  0  0  0  0  0  0  0
    8.8412   -2.8962   24.2264 C   0  0  0  0  0  0  0  0  0  0  0  0
    9.2137   -2.0116   23.6249 N   0  0  0  0  0  0  0  0  0  0  0  0
   10.1117   -1.3451   22.9543 C   0  0  0  0  0  0  0  0  0  0  0  0
   11.5335    0.1935   24.4653 H   0  0  0  0  0  0  0  0  0  0  0  0
   12.4302   -0.0645   23.9377 C   0  5  0  0  0  0  0  0  0  0  0  0
   13.4080    0.2577   23.9264 H   0  0  0  0  0  0  0  0  0  0  0  0
   12.2707   -1.0778   23.1049 C   0  0  0  0  0  0  0  0  0  0  0  0
   11.3993   -1.6671   22.8467 C   0  0  0  0  0  0  0  0  0  0  0  0
    9.7655   -0.4172   22.1707 C   0  0  0  0  0  0  0  0  0  0  0  0
    9.0093    0.1687   21.2365 C   0  0  0  0  0  0  0  0  0  0  0  0
    9.4093    1.1874   20.7475 O   0  0  0  0  0  0  0  0  0  0  0  0
    7.9074   -0.5882   21.0787 N   0  0  0  0  0  0  0  0  0  0  0  0
    7.1959   -0.0732   20.1648 C   0  0  0  0  0  0  0  0  0  0  0  0
    7.2327    0.0064   18.8160 C   0  0  0  0  0  0  0  0  0  0  0  0
    6.7763    0.3589   17.7965 N   0  0  0  0  0  0  0  0  0  0  0  0
    5.6948    0.8532   18.2452 C   0  0  0  0  0  0  0  0  0  0  0  0
    5.3404    0.9059   19.4083 C   0  0  0  0  0  0  0  0  0  0  0  0
    5.8747    0.5548   20.5261 C   0  0  0  0  0  0  0  0  0  0  0  0
    5.5236    0.6666   21.5073 H   0  0  0  0  0  0  0  0  0  0  0  0
 20 21  2  0  0  0  0
 19 20  1  0  0  0  0
 21 22  1  0  0  0  0
 18 19  2  0  0  0  0
 22 23  2  0  0  0  0
 18 23  1  0  0  0  0
 17 18  1  0  0  0  0
 23 24  1  0  0  0  0
 15 16  2  0  0  0  0
 15 17  1  0  0  0  0
 14 15  1  0  0  0  0
  8 14  2  3  0  0  0
  8 13  1  0  0  0  0
 12 13  2  0  0  0  0
  7  8  1  0  0  0  0
 10 12  1  0  0  0  0
  6  7  2  0  0  0  0
 10 11  1  0  0  0  0
  9 10  1  0  0  0  0
  5  6  1  0  0  0  0
  2  5  1  0  0  0  0
  2  3  2  0  0  0  0
  1  2  1  0  0  0  0
  2  4  2  0  0  0  0
M  CHG  1  10  -1
M  END
> <Shapegauss>
-258.321472

$$$$
