stable:False satoms:10 tatoms:24 sratio:0.4166666666666667
  -OEChem-08062411473D

 34 34  0     0  0  0  0  0  0999 V2000
   -6.0272   -4.7850  -26.4502 Cl  0  0  0  0  0  0  0  0  0  0  0  0
   -7.8723   -4.5561  -26.0735 S   0  0  0  0  0  0  0  0  0  0  0  0
   -8.4415   -5.8323  -25.8867 O   0  0  0  0  0  0  0  0  0  0  0  0
   -8.4185   -3.7717  -27.1237 O   0  0  0  0  0  0  0  0  0  0  0  0
   -7.7811   -3.7667  -24.6697 N   0  0  0  0  0  0  0  0  0  0  0  0
   -8.6004   -3.0901  -24.1518 C   0  0  0  0  0  0  0  0  0  0  0  0
   -9.0716   -2.2594  -23.5426 N   0  0  0  0  0  0  0  0  0  0  0  0
  -10.0419   -1.7038  -22.8717 C   0  0  0  0  0  0  0  0  0  0  0  0
  -11.9253    0.2232  -23.5371 H   0  0  0  0  0  0  0  0  0  0  0  0
  -12.4792   -0.6709  -23.8594 C   0  0  0  0  0  0  0  0  0  0  0  0
  -13.5583   -0.4584  -23.8454 H   0  0  0  0  0  0  0  0  0  0  0  0
  -12.2160   -1.6717  -23.0378 C   0  0  0  0  0  0  0  0  0  0  0  0
  -11.2874   -2.1658  -22.7793 C   0  0  0  0  0  0  0  0  0  0  0  0
   -9.8049   -0.7541  -22.0737 C   0  0  0  0  0  0  0  0  0  0  0  0
   -9.1240   -0.1016  -21.1258 C   0  0  0  0  0  0  0  0  0  0  0  0
   -9.6364    0.8608  -20.6278 O   0  0  0  0  0  0  0  0  0  0  0  0
   -7.9472   -0.7358  -20.9678 N   0  0  0  0  0  0  0  0  0  0  0  0
   -7.3029   -0.1584  -20.0415 C   0  0  0  0  0  0  0  0  0  0  0  0
   -7.3580   -0.1011  -18.6921 C   0  0  0  0  0  0  0  0  0  0  0  0
   -6.9503    0.2856  -17.6644 N   0  0  0  0  0  0  0  0  0  0  0  0
   -5.9260    0.9008  -18.0976 C   0  0  0  0  0  0  0  0  0  0  0  0
   -5.5710    1.0073  -19.2568 C   0  0  0  0  0  0  0  0  0  0  0  0
   -6.0556    0.6148  -20.3835 C   0  0  0  0  0  0  0  0  0  0  0  0
   -5.7117    0.7772  -21.3601 H   0  0  0  0  0  0  0  0  0  0  0  0
   -6.9187   -3.8623  -24.1726 H   0  0  0  0  0  0  0  0  0  0  0  0
   -9.4922   -3.6080  -24.4723 H   0  0  0  0  0  0  0  0  0  0  0  0
  -12.1726   -0.9442  -24.8798 H   0  0  0  0  0  0  0  0  0  0  0  0
  -13.0839   -2.0690  -22.5325 H   0  0  0  0  0  0  0  0  0  0  0  0
  -11.3850   -3.1700  -22.3941 H   0  0  0  0  0  0  0  0  0  0  0  0
  -10.6255   -0.0802  -22.2704 H   0  0  0  0  0  0  0  0  0  0  0  0
   -7.6345   -1.5278  -21.4921 H   0  0  0  0  0  0  0  0  0  0  0  0
   -8.2003   -0.7243  -18.4304 H   0  0  0  0  0  0  0  0  0  0  0  0
   -5.3035    1.3810  -17.3571 H   0  0  0  0  0  0  0  0  0  0  0  0
   -4.6443    1.5514  -19.3644 H   0  0  0  0  0  0  0  0  0  0  0  0
 20 21  2  0  0  0  0
 19 20  1  0  0  0  0
 21 22  1  0  0  0  0
 18 19  2  0  0  0  0
 22 23  2  0  0  0  0
 18 23  1  0  0  0  0
 17 18  1  0  0  0  0
 23 24  1  0  0  0  0
 15 16  2  0  0  0  0
 15 17  1  0  0  0  0
 14 15  1  0  0  0  0
  8 14  2  3  0  0  0
  8 13  1  0  0  0  0
 12 13  2  0  0  0  0
  7  8  1  0  0  0  0
 10 12  1  0  0  0  0
  6  7  2  0  0  0  0
 10 11  1  0  0  0  0
  9 10  1  0  0  0  0
  5  6  1  0  0  0  0
  2  5  1  0  0  0  0
  2  3  2  0  0  0  0
  1  2  1  0  0  0  0
  2  4  2  0  0  0  0
  5 25  1  0  0  0  0
  6 26  1  0  0  0  0
 10 27  1  0  0  0  0
 12 28  1  0  0  0  0
 13 29  1  0  0  0  0
 14 30  1  0  0  0  0
 17 31  1  0  0  0  0
 19 32  1  0  0  0  0
 21 33  1  0  0  0  0
 22 34  1  0  0  0  0
M  END
> <Chemgauss4>
-11.402521

$$$$
