stable:False satoms:10 tatoms:24 sratio:0.4166666666666667
  -OEChem-08062411473D

 34 34  0     0  0  0  0  0  0999 V2000
    6.3019   -4.6563   26.7850 Cl  0  0  0  0  0  0  0  0  0  0  0  0
    8.1255   -4.4555   26.3024 S   0  0  0  0  0  0  0  0  0  0  0  0
    8.6674   -5.7409   26.0984 O   0  0  0  0  0  0  0  0  0  0  0  0
    8.7398   -3.6670   27.3111 O   0  0  0  0  0  0  0  0  0  0  0  0
    7.9650   -3.6801   24.8970 N   0  0  0  0  0  0  0  0  0  0  0  0
    8.7620   -3.0198   24.3260 C   0  0  0  0  0  0  0  0  0  0  0  0
    9.2084   -2.2019   23.6819 N   0  0  0  0  0  0  0  0  0  0  0  0
   10.1461   -1.6663   22.9510 C   0  0  0  0  0  0  0  0  0  0  0  0
   12.0878    0.2431   23.4872 H   0  0  0  0  0  0  0  0  0  0  0  0
   12.6478   -0.6547   23.7880 C   0  0  0  0  0  0  0  0  0  0  0  0
   13.7271   -0.4564   23.7108 H   0  0  0  0  0  0  0  0  0  0  0  0
   12.3264   -1.6607   22.9940 C   0  0  0  0  0  0  0  0  0  0  0  0
   11.3786   -2.1454   22.7939 C   0  0  0  0  0  0  0  0  0  0  0  0
    9.8762   -0.7222   22.1568 C   0  0  0  0  0  0  0  0  0  0  0  0
    9.1511   -0.0711   21.2413 C   0  0  0  0  0  0  0  0  0  0  0  0
    9.6464    0.8792   20.7042 O   0  0  0  0  0  0  0  0  0  0  0  0
    7.9594   -0.6915   21.1571 N   0  0  0  0  0  0  0  0  0  0  0  0
    7.2711   -0.1158   20.2619 C   0  0  0  0  0  0  0  0  0  0  0  0
    7.2507   -0.0737   18.9111 C   0  0  0  0  0  0  0  0  0  0  0  0
    6.7904    0.3072   17.9036 N   0  0  0  0  0  0  0  0  0  0  0  0
    5.7999    0.9403   18.3866 C   0  0  0  0  0  0  0  0  0  0  0  0
    5.5122    1.0638   19.5627 C   0  0  0  0  0  0  0  0  0  0  0  0
    6.0547    0.6772   20.6647 C   0  0  0  0  0  0  0  0  0  0  0  0
    5.7685    0.8545   21.6573 H   0  0  0  0  0  0  0  0  0  0  0  0
    7.0748   -3.7697   24.4503 H   0  0  0  0  0  0  0  0  0  0  0  0
    9.6640   -3.5458   24.6018 H   0  0  0  0  0  0  0  0  0  0  0  0
   12.3960   -0.9129   24.8271 H   0  0  0  0  0  0  0  0  0  0  0  0
   13.1594   -2.0747   22.4453 H   0  0  0  0  0  0  0  0  0  0  0  0
   11.4417   -3.1549   22.4154 H   0  0  0  0  0  0  0  0  0  0  0  0
   10.7149   -0.0569   22.2993 H   0  0  0  0  0  0  0  0  0  0  0  0
    7.6670   -1.4737   21.7072 H   0  0  0  0  0  0  0  0  0  0  0  0
    8.0690   -0.7107   18.6095 H   0  0  0  0  0  0  0  0  0  0  0  0
    5.1426    1.4205   17.6769 H   0  0  0  0  0  0  0  0  0  0  0  0
    4.5999    1.6211   19.7161 H   0  0  0  0  0  0  0  0  0  0  0  0
 20 21  2  0  0  0  0
 19 20  1  0  0  0  0
 21 22  1  0  0  0  0
 18 19  2  0  0  0  0
 22 23  2  0  0  0  0
 18 23  1  0  0  0  0
 17 18  1  0  0  0  0
 23 24  1  0  0  0  0
 15 16  2  0  0  0  0
 15 17  1  0  0  0  0
 14 15  1  0  0  0  0
  8 14  2  3  0  0  0
  8 13  1  0  0  0  0
 12 13  2  0  0  0  0
  7  8  1  0  0  0  0
 10 12  1  0  0  0  0
  6  7  2  0  0  0  0
 10 11  1  0  0  0  0
  9 10  1  0  0  0  0
  5  6  1  0  0  0  0
  2  5  1  0  0  0  0
  2  3  2  0  0  0  0
  1  2  1  0  0  0  0
  2  4  2  0  0  0  0
  5 25  1  0  0  0  0
  6 26  1  0  0  0  0
 10 27  1  0  0  0  0
 12 28  1  0  0  0  0
 13 29  1  0  0  0  0
 14 30  1  0  0  0  0
 17 31  1  0  0  0  0
 19 32  1  0  0  0  0
 21 33  1  0  0  0  0
 22 34  1  0  0  0  0
M  END
> <Chemgauss4>
-11.612476

$$$$
