MODEL 1
REMARK VINA RESULT:    -5.842      0.000      0.000
REMARK INTER + INTRA:         -10.974
REMARK INTER:                  -9.087
REMARK INTRA:                  -1.887
REMARK UNBOUND:                -1.887
REMARK  12 active torsions:
REMARK  status: ('A' for Active; 'I' for Inactive)
REMARK    1  A    between atoms: P_1  and  O5'_31 
REMARK    2  A    between atoms: C2_4  and  O2_5 
REMARK    3  A    between atoms: C4_8  and  O4_9 
REMARK    4  A    between atoms: C1'_17  and  N10_19 
REMARK    5  A    between atoms: C1'_17  and  C2'_21 
REMARK    6  A    between atoms: C2'_21  and  O2'_22 
REMARK    7  A    between atoms: C2'_21  and  C3'_24 
REMARK    8  A    between atoms: C3'_24  and  O3'_25 
REMARK    9  A    between atoms: C3'_24  and  C4'_27 
REMARK   10  A    between atoms: C4'_27  and  O4'_28 
REMARK   11  A    between atoms: C4'_27  and  C5'_30 
REMARK   12  A    between atoms: C5'_30  and  O5'_31 
ROOT
HETATM    1  N1  FMN A 152      44.202   6.113  12.828  1.00 10.21    -0.306 N 
ATOM      2  H1  FMN A 152      43.206   6.318  12.750  1.00  0.00     0.171 HD
HETATM    3  C2  FMN A 152      44.859   6.107  14.049  1.00  5.15     0.224 A 
HETATM    4  N3  FMN A 152      46.181   5.776  14.212  1.00 10.89    -0.301 N 
HETATM    5  C4  FMN A 152      46.937   5.407  13.101  1.00  8.86     0.174 A 
HETATM    6  N5  FMN A 152      47.071   5.058  10.718  1.00 10.27    -0.348 N 
ATOM      7  H5  FMN A 152      48.082   4.939  10.788  1.00  0.00     0.166 HD
HETATM    8  C6  FMN A 152      47.135   4.323   8.408  1.00 13.25     0.039 A 
HETATM    9  C7  FMN A 152      46.424   4.090   7.216  1.00 17.54    -0.054 A 
HETATM   10  C8  FMN A 152      45.069   4.432   7.118  1.00 14.42    -0.054 A 
HETATM   11  C9  FMN A 152      44.371   5.003   8.218  1.00 12.31     0.039 A 
HETATM   12  C10 FMN A 152      44.979   5.824  11.723  1.00 11.58     0.142 A 
HETATM   13  N10 FMN A 152      44.334   5.793  10.497  1.00 14.21    -0.327 N 
HETATM   14  C4A FMN A 152      46.322   5.414  11.828  1.00 11.49     0.129 A 
HETATM   15  C5A FMN A 152      46.413   4.865   9.502  1.00  7.85     0.060 A 
HETATM   16  C7M FMN A 152      47.107   3.488   6.083  1.00 17.70     0.049 C 
HETATM   17  C8M FMN A 152      44.278   4.204   5.952  1.00  9.61     0.049 C 
HETATM   18  C9A FMN A 152      45.052   5.202   9.436  1.00 10.60     0.063 A 
HETATM   19  H3  FMN A 152      46.598   5.800  15.121  1.00 20.00     0.171 HD
ENDROOT
BRANCH  13  20
HETATM   20  C1' FMN A 152      42.976   6.137  10.484  1.00 12.50     0.165 C 
BRANCH  20  21
HETATM   21  C2' FMN A 152      42.781   7.592  10.062  1.00  4.22     0.167 C 
BRANCH  21  22
HETATM   22  O2' FMN A 152      42.407   8.356  11.235  1.00 11.74    -0.391 OA
HETATM   23  H2' FMN A 152      42.917   9.157  11.268  1.00 20.00     0.210 HD
ENDBRANCH  21  22
BRANCH  21  24
HETATM   24  C3' FMN A 152      41.679   7.602   8.977  1.00 10.81     0.179 C 
BRANCH  24  25
HETATM   25  O3' FMN A 152      41.257   8.965   8.727  1.00 12.86    -0.390 OA
HETATM   26  H3' FMN A 152      40.870   9.024   7.861  1.00 20.00     0.210 HD
ENDBRANCH  24  25
BRANCH  24  27
HETATM   27  C4' FMN A 152      40.488   6.744   9.269  1.00  7.88     0.173 C 
BRANCH  27  28
HETATM   28  O4' FMN A 152      40.103   6.036   8.036  1.00  9.93    -0.391 OA
HETATM   29  H4' FMN A 152      39.586   5.271   8.258  1.00 20.00     0.210 HD
ENDBRANCH  27  28
BRANCH  27  30
HETATM   30  C5' FMN A 152      39.310   7.429   9.715  1.00 10.12     0.217 C 
BRANCH  30  31
HETATM   31  O5' FMN A 152      39.544   7.821  11.085  1.00  8.45    -0.280 OA
BRANCH  31  32
HETATM   32  P   FMN A 152      39.071   9.293  11.629  1.00  6.03     0.422 P 
HETATM   33  O1P FMN A 152      37.502   9.736  11.262  1.00 11.39    -0.617 OA
HETATM   34  O2P FMN A 152      40.077  10.464  10.895  1.00 10.51    -0.617 OA
HETATM   35  O3P FMN A 152      39.333   9.351  13.254  1.00  8.79    -0.617 OA
ENDBRANCH  31  32
ENDBRANCH  30  31
ENDBRANCH  27  30
ENDBRANCH  24  27
ENDBRANCH  21  24
ENDBRANCH  20  21
ENDBRANCH  13  20
BRANCH   3  36
HETATM   36  O2  FMN A 152      44.095   6.438  15.116  1.00 15.20    -0.332 OA
ATOM     37  H2  FMN A 152      44.180   7.336  15.412  1.00  0.00     0.221 HD
ENDBRANCH   3  36
BRANCH   5  38
HETATM   38  O4  FMN A 152      48.261   5.067  13.193  1.00 13.93    -0.344 OA
ATOM     39  H4  FMN A 152      48.953   5.717  13.219  1.00  0.00     0.219 HD
ENDBRANCH   5  38
TORSDOF 12
ENDMDL
MODEL 2
REMARK VINA RESULT:    -5.816     20.086     22.752
REMARK INTER + INTRA:         -10.932
REMARK INTER:                 -10.017
REMARK INTRA:                  -0.916
REMARK UNBOUND:                -1.887
REMARK  12 active torsions:
REMARK  status: ('A' for Active; 'I' for Inactive)
REMARK    1  A    between atoms: P_1  and  O5'_31 
REMARK    2  A    between atoms: C2_4  and  O2_5 
REMARK    3  A    between atoms: C4_8  and  O4_9 
REMARK    4  A    between atoms: C1'_17  and  N10_19 
REMARK    5  A    between atoms: C1'_17  and  C2'_21 
REMARK    6  A    between atoms: C2'_21  and  O2'_22 
REMARK    7  A    between atoms: C2'_21  and  C3'_24 
REMARK    8  A    between atoms: C3'_24  and  O3'_25 
REMARK    9  A    between atoms: C3'_24  and  C4'_27 
REMARK   10  A    between atoms: C4'_27  and  O4'_28 
REMARK   11  A    between atoms: C4'_27  and  C5'_30 
REMARK   12  A    between atoms: C5'_30  and  O5'_31 
ROOT
HETATM    1  N1  FMN A 152      50.420  14.787  30.364  1.00 10.21    -0.306 N 
ATOM      2  H1  FMN A 152      51.400  14.538  30.497  1.00  0.00     0.171 HD
HETATM    3  C2  FMN A 152      49.389  14.024  30.892  1.00  5.15     0.224 A 
HETATM    4  N3  FMN A 152      48.059  14.352  30.793  1.00 10.89    -0.301 N 
HETATM    5  C4  FMN A 152      47.688  15.524  30.138  1.00  8.86     0.174 A 
HETATM    6  N5  FMN A 152      48.337  17.492  28.901  1.00 10.27    -0.348 N 
ATOM      7  H5  FMN A 152      47.358  17.690  28.696  1.00  0.00     0.166 HD
HETATM    8  C6  FMN A 152      48.972  19.656  28.011  1.00 13.25     0.039 A 
HETATM    9  C7  FMN A 152      50.011  20.549  27.692  1.00 17.54    -0.054 A 
HETATM   10  C8  FMN A 152      51.350  20.163  27.832  1.00 14.42    -0.054 A 
HETATM   11  C9  FMN A 152      51.698  18.871  28.316  1.00 12.31     0.039 A 
HETATM   12  C10 FMN A 152      50.039  15.903  29.646  1.00 11.58     0.142 A 
HETATM   13  N10 FMN A 152      51.055  16.696  29.138  1.00 14.21    -0.327 N 
HETATM   14  C4A FMN A 152      48.699  16.329  29.564  1.00 11.49     0.129 A 
HETATM   15  C5A FMN A 152      49.340  18.384  28.520  1.00  7.85     0.060 A 
HETATM   16  C7M FMN A 152      49.684  21.884  27.214  1.00 17.70     0.049 C 
HETATM   17  C8M FMN A 152      52.455  21.021  27.552  1.00  9.61     0.049 C 
HETATM   18  C9A FMN A 152      50.673  17.976  28.686  1.00 10.60     0.063 A 
HETATM   19  H3  FMN A 152      47.362  13.753  31.189  1.00 20.00     0.171 HD
ENDROOT
BRANCH  13  20
HETATM   20  C1' FMN A 152      52.369  16.247  29.330  1.00 12.50     0.165 C 
BRANCH  20  21
HETATM   21  C2' FMN A 152      52.797  15.303  28.208  1.00  4.22     0.167 C 
BRANCH  21  22
HETATM   22  O2' FMN A 152      52.522  13.945  28.629  1.00 11.74    -0.391 OA
HETATM   23  H2' FMN A 152      51.593  13.767  28.541  1.00 20.00     0.210 HD
ENDBRANCH  21  22
BRANCH  21  24
HETATM   24  C3' FMN A 152      54.303  15.551  27.963  1.00 10.81     0.179 C 
BRANCH  24  25
HETATM   25  O3' FMN A 152      54.577  16.973  28.024  1.00 12.86    -0.390 OA
HETATM   26  H3' FMN A 152      54.564  17.337  27.147  1.00 20.00     0.210 HD
ENDBRANCH  24  25
BRANCH  24  27
HETATM   27  C4' FMN A 152      54.845  14.982  26.689  1.00  7.88     0.173 C 
BRANCH  27  28
HETATM   28  O4' FMN A 152      55.717  15.987  26.057  1.00  9.93    -0.391 OA
HETATM   29  H4' FMN A 152      56.529  15.575  25.784  1.00 20.00     0.210 HD
ENDBRANCH  27  28
BRANCH  27  30
HETATM   30  C5' FMN A 152      53.875  14.620  25.696  1.00 10.12     0.217 C 
BRANCH  30  31
HETATM   31  O5' FMN A 152      54.465  13.575  24.893  1.00  8.45    -0.280 OA
BRANCH  31  32
HETATM   32  P   FMN A 152      54.750  13.805  23.296  1.00  6.03     0.422 P 
HETATM   33  O1P FMN A 152      53.729  12.995  22.249  1.00 11.39    -0.617 OA
HETATM   34  O2P FMN A 152      56.323  13.227  22.961  1.00 10.51    -0.617 OA
HETATM   35  O3P FMN A 152      54.733  15.424  22.996  1.00  8.79    -0.617 OA
ENDBRANCH  31  32
ENDBRANCH  30  31
ENDBRANCH  27  30
ENDBRANCH  24  27
ENDBRANCH  21  24
ENDBRANCH  20  21
ENDBRANCH  13  20
BRANCH   3  36
HETATM   36  O2  FMN A 152      49.776  12.909  31.551  1.00 15.20    -0.332 OA
ATOM     37  H2  FMN A 152      50.504  12.439  31.161  1.00  0.00     0.221 HD
ENDBRANCH   3  36
BRANCH   5  38
HETATM   38  O4  FMN A 152      46.381  15.908  30.002  1.00 13.93    -0.344 OA
ATOM     39  H4  FMN A 152      46.128  16.813  29.863  1.00  0.00     0.219 HD
ENDBRANCH   5  38
TORSDOF 12
ENDMDL
MODEL 3
REMARK VINA RESULT:    -5.419     21.818     23.322
REMARK INTER + INTRA:         -10.316
REMARK INTER:                  -8.887
REMARK INTRA:                  -1.429
REMARK UNBOUND:                -1.887
REMARK  12 active torsions:
REMARK  status: ('A' for Active; 'I' for Inactive)
REMARK    1  A    between atoms: P_1  and  O5'_31 
REMARK    2  A    between atoms: C2_4  and  O2_5 
REMARK    3  A    between atoms: C4_8  and  O4_9 
REMARK    4  A    between atoms: C1'_17  and  N10_19 
REMARK    5  A    between atoms: C1'_17  and  C2'_21 
REMARK    6  A    between atoms: C2'_21  and  O2'_22 
REMARK    7  A    between atoms: C2'_21  and  C3'_24 
REMARK    8  A    between atoms: C3'_24  and  O3'_25 
REMARK    9  A    between atoms: C3'_24  and  C4'_27 
REMARK   10  A    between atoms: C4'_27  and  O4'_28 
REMARK   11  A    between atoms: C4'_27  and  C5'_30 
REMARK   12  A    between atoms: C5'_30  and  O5'_31 
ROOT
HETATM    1  N1  FMN A 152      51.203  16.409  28.915  1.00 10.21    -0.306 N 
ATOM      2  H1  FMN A 152      50.250  16.060  28.809  1.00  0.00     0.171 HD
HETATM    3  C2  FMN A 152      52.274  15.562  29.154  1.00  5.15     0.224 A 
HETATM    4  N3  FMN A 152      53.580  15.976  29.241  1.00 10.89    -0.301 N 
HETATM    5  C4  FMN A 152      53.884  17.326  29.071  1.00  8.86     0.174 A 
HETATM    6  N5  FMN A 152      53.120  19.581  28.684  1.00 10.27    -0.348 N 
ATOM      7  H5  FMN A 152      54.057  19.936  28.875  1.00  0.00     0.166 HD
HETATM    8  C6  FMN A 152      52.438  21.776  27.911  1.00 13.25     0.039 A 
HETATM    9  C7  FMN A 152      51.400  22.595  27.429  1.00 17.54    -0.054 A 
HETATM   10  C8  FMN A 152      50.090  22.107  27.345  1.00 14.42    -0.054 A 
HETATM   11  C9  FMN A 152      49.773  20.774  27.725  1.00 12.31     0.039 A 
HETATM   12  C10 FMN A 152      51.503  17.754  28.828  1.00 11.58     0.142 A 
HETATM   13  N10 FMN A 152      50.451  18.613  28.557  1.00 14.21    -0.327 N 
HETATM   14  C4A FMN A 152      52.826  18.236  28.844  1.00 11.49     0.129 A 
HETATM   15  C5A FMN A 152      52.107  20.440  28.255  1.00  7.85     0.060 A 
HETATM   16  C7M FMN A 152      51.699  23.957  27.015  1.00 17.70     0.049 C 
HETATM   17  C8M FMN A 152      48.992  22.870  26.845  1.00  9.61     0.049 C 
HETATM   18  C9A FMN A 152      50.806  19.921  28.166  1.00 10.60     0.063 A 
HETATM   19  H3  FMN A 152      54.308  15.315  29.425  1.00 20.00     0.171 HD
ENDROOT
BRANCH  13  20
HETATM   20  C1' FMN A 152      49.172  18.047  28.478  1.00 12.50     0.165 C 
BRANCH  20  21
HETATM   21  C2' FMN A 152      48.467  18.086  29.833  1.00  4.22     0.167 C 
BRANCH  21  22
HETATM   22  O2' FMN A 152      49.480  18.105  30.869  1.00 11.74    -0.391 OA
HETATM   23  H2' FMN A 152      49.461  17.283  31.346  1.00 20.00     0.210 HD
ENDBRANCH  21  22
BRANCH  21  24
HETATM   24  C3' FMN A 152      47.569  16.831  29.909  1.00 10.81     0.179 C 
BRANCH  24  25
HETATM   25  O3' FMN A 152      46.264  17.198  30.422  1.00 12.86    -0.390 OA
HETATM   26  H3' FMN A 152      46.135  16.801  31.275  1.00 20.00     0.210 HD
ENDBRANCH  24  25
BRANCH  24  27
HETATM   27  C4' FMN A 152      48.128  15.694  30.706  1.00  7.88     0.173 C 
BRANCH  27  28
HETATM   28  O4' FMN A 152      48.911  14.828  29.807  1.00  9.93    -0.391 OA
HETATM   29  H4' FMN A 152      49.340  14.148  30.314  1.00 20.00     0.210 HD
ENDBRANCH  27  28
BRANCH  27  30
HETATM   30  C5' FMN A 152      47.171  14.838  31.344  1.00 10.12     0.217 C 
BRANCH  30  31
HETATM   31  O5' FMN A 152      46.408  14.205  30.294  1.00  8.45    -0.280 OA
BRANCH  31  32
HETATM   32  P   FMN A 152      44.822  13.850  30.508  1.00  6.03     0.422 P 
HETATM   33  O1P FMN A 152      43.828  15.142  30.873  1.00 11.39    -0.617 OA
HETATM   34  O2P FMN A 152      44.705  12.776  31.833  1.00 10.51    -0.617 OA
HETATM   35  O3P FMN A 152      44.285  13.056  29.168  1.00  8.79    -0.617 OA
ENDBRANCH  31  32
ENDBRANCH  30  31
ENDBRANCH  27  30
ENDBRANCH  24  27
ENDBRANCH  21  24
ENDBRANCH  20  21
ENDBRANCH  13  20
BRANCH   3  36
HETATM   36  O2  FMN A 152      51.957  14.253  29.283  1.00 15.20    -0.332 OA
ATOM     37  H2  FMN A 152      52.057  13.897  30.157  1.00  0.00     0.221 HD
ENDBRANCH   3  36
BRANCH   5  38
HETATM   38  O4  FMN A 152      55.164  17.806  29.147  1.00 13.93    -0.344 OA
ATOM     39  H4  FMN A 152      55.392  18.570  29.664  1.00  0.00     0.219 HD
ENDBRANCH   5  38
TORSDOF 12
ENDMDL
MODEL 4
REMARK VINA RESULT:    -5.307     13.609     17.764
REMARK INTER + INTRA:         -10.142
REMARK INTER:                  -7.691
REMARK INTRA:                  -2.451
REMARK UNBOUND:                -1.887
REMARK  12 active torsions:
REMARK  status: ('A' for Active; 'I' for Inactive)
REMARK    1  A    between atoms: P_1  and  O5'_31 
REMARK    2  A    between atoms: C2_4  and  O2_5 
REMARK    3  A    between atoms: C4_8  and  O4_9 
REMARK    4  A    between atoms: C1'_17  and  N10_19 
REMARK    5  A    between atoms: C1'_17  and  C2'_21 
REMARK    6  A    between atoms: C2'_21  and  O2'_22 
REMARK    7  A    between atoms: C2'_21  and  C3'_24 
REMARK    8  A    between atoms: C3'_24  and  O3'_25 
REMARK    9  A    between atoms: C3'_24  and  C4'_27 
REMARK   10  A    between atoms: C4'_27  and  O4'_28 
REMARK   11  A    between atoms: C4'_27  and  C5'_30 
REMARK   12  A    between atoms: C5'_30  and  O5'_31 
ROOT
HETATM    1  N1  FMN A 152      49.700   2.229  24.237  1.00 10.21    -0.306 N 
ATOM      2  H1  FMN A 152      50.093   2.203  25.177  1.00  0.00     0.171 HD
HETATM    3  C2  FMN A 152      50.501   2.306  23.107  1.00  5.15     0.224 A 
HETATM    4  N3  FMN A 152      50.023   2.281  21.820  1.00 10.89    -0.301 N 
HETATM    5  C4  FMN A 152      48.652   2.159  21.600  1.00  8.86     0.174 A 
HETATM    6  N5  FMN A 152      46.423   1.984  22.507  1.00 10.27    -0.348 N 
ATOM      7  H5  FMN A 152      46.030   2.098  21.572  1.00  0.00     0.166 HD
HETATM    8  C6  FMN A 152      44.230   1.415  23.370  1.00 13.25     0.039 A 
HETATM    9  C7  FMN A 152      43.443   1.092  24.491  1.00 17.54    -0.054 A 
HETATM   10  C8  FMN A 152      43.994   1.117  25.778  1.00 14.42    -0.054 A 
HETATM   11  C9  FMN A 152      45.361   1.450  25.989  1.00 12.31     0.039 A 
HETATM   12  C10 FMN A 152      48.339   2.190  24.011  1.00 11.58     0.142 A 
HETATM   13  N10 FMN A 152      47.523   2.080  25.126  1.00 14.21    -0.327 N 
HETATM   14  C4A FMN A 152      47.789   2.096  22.718  1.00 11.49     0.129 A 
HETATM   15  C5A FMN A 152      45.598   1.714  23.599  1.00  7.85     0.060 A 
HETATM   16  C7M FMN A 152      42.047   0.729  24.303  1.00 17.70     0.049 C 
HETATM   17  C8M FMN A 152      43.265   0.779  26.958  1.00  9.61     0.049 C 
HETATM   18  C9A FMN A 152      46.180   1.731  24.876  1.00 10.60     0.063 A 
HETATM   19  H3  FMN A 152      50.654   2.349  21.047  1.00 20.00     0.171 HD
ENDROOT
BRANCH  13  20
HETATM   20  C1' FMN A 152      48.152   2.101  26.378  1.00 12.50     0.165 C 
BRANCH  20  21
HETATM   21  C2' FMN A 152      48.133   3.506  26.979  1.00  4.22     0.167 C 
BRANCH  21  22
HETATM   22  O2' FMN A 152      49.315   4.208  26.525  1.00 11.74    -0.391 OA
HETATM   23  H2' FMN A 152      50.069   3.917  27.025  1.00 20.00     0.210 HD
ENDBRANCH  21  22
BRANCH  21  24
HETATM   24  C3' FMN A 152      48.102   3.336  28.516  1.00 10.81     0.179 C 
BRANCH  24  25
HETATM   25  O3' FMN A 152      48.733   4.480  29.143  1.00 12.86    -0.390 OA
HETATM   26  H3' FMN A 152      48.088   5.163  29.280  1.00 20.00     0.210 HD
ENDBRANCH  24  25
BRANCH  24  27
HETATM   27  C4' FMN A 152      48.714   2.071  29.030  1.00  7.88     0.173 C 
BRANCH  27  28
HETATM   28  O4' FMN A 152      47.745   1.406  29.920  1.00  9.93    -0.391 OA
HETATM   29  H4' FMN A 152      47.173   0.848  29.406  1.00 20.00     0.210 HD
ENDBRANCH  27  28
BRANCH  27  30
HETATM   30  C5' FMN A 152      49.917   2.216  29.795  1.00 10.12     0.217 C 
BRANCH  30  31
HETATM   31  O5' FMN A 152      50.973   1.580  29.044  1.00  8.45    -0.280 OA
BRANCH  31  32
HETATM   32  P   FMN A 152      51.971   2.462  28.088  1.00  6.03     0.422 P 
HETATM   33  O1P FMN A 152      53.607   2.296  28.391  1.00 11.39    -0.617 OA
HETATM   34  O2P FMN A 152      51.610   4.113  28.347  1.00 10.51    -0.617 OA
HETATM   35  O3P FMN A 152      51.626   2.111  26.517  1.00  8.79    -0.617 OA
ENDBRANCH  31  32
ENDBRANCH  30  31
ENDBRANCH  27  30
ENDBRANCH  24  27
ENDBRANCH  21  24
ENDBRANCH  20  21
ENDBRANCH  13  20
BRANCH   3  36
HETATM   36  O2  FMN A 152      51.829   2.391  23.347  1.00 15.20    -0.332 OA
ATOM     37  H2  FMN A 152      52.108   3.172  23.810  1.00  0.00     0.221 HD
ENDBRANCH   3  36
BRANCH   5  38
HETATM   38  O4  FMN A 152      48.109   2.129  20.343  1.00 13.93    -0.344 OA
ATOM     39  H4  FMN A 152      48.510   2.573  19.605  1.00  0.00     0.219 HD
ENDBRANCH   5  38
TORSDOF 12
ENDMDL
MODEL 5
REMARK VINA RESULT:    -5.238     13.156     14.509
REMARK INTER + INTRA:         -10.034
REMARK INTER:                  -7.687
REMARK INTRA:                  -2.347
REMARK UNBOUND:                -1.887
REMARK  12 active torsions:
REMARK  status: ('A' for Active; 'I' for Inactive)
REMARK    1  A    between atoms: P_1  and  O5'_31 
REMARK    2  A    between atoms: C2_4  and  O2_5 
REMARK    3  A    between atoms: C4_8  and  O4_9 
REMARK    4  A    between atoms: C1'_17  and  N10_19 
REMARK    5  A    between atoms: C1'_17  and  C2'_21 
REMARK    6  A    between atoms: C2'_21  and  O2'_22 
REMARK    7  A    between atoms: C2'_21  and  C3'_24 
REMARK    8  A    between atoms: C3'_24  and  O3'_25 
REMARK    9  A    between atoms: C3'_24  and  C4'_27 
REMARK   10  A    between atoms: C4'_27  and  O4'_28 
REMARK   11  A    between atoms: C4'_27  and  C5'_30 
REMARK   12  A    between atoms: C5'_30  and  O5'_31 
ROOT
HETATM    1  N1  FMN A 152      36.264  15.031  19.382  1.00 10.21    -0.306 N 
ATOM      2  H1  FMN A 152      35.358  14.725  19.028  1.00  0.00     0.171 HD
HETATM    3  C2  FMN A 152      36.738  16.318  19.175  1.00  5.15     0.224 A 
HETATM    4  N3  FMN A 152      37.920  16.796  19.685  1.00 10.89    -0.301 N 
HETATM    5  C4  FMN A 152      38.712  15.964  20.475  1.00  8.86     0.174 A 
HETATM    6  N5  FMN A 152      39.072  13.800  21.478  1.00 10.27    -0.348 N 
ATOM      7  H5  FMN A 152      40.013  14.081  21.757  1.00  0.00     0.166 HD
HETATM    8  C6  FMN A 152      39.270  11.786  22.814  1.00 13.25     0.039 A 
HETATM    9  C7  FMN A 152      38.686  10.575  23.228  1.00 17.54    -0.054 A 
HETATM   10  C8  FMN A 152      37.467  10.150  22.685  1.00 14.42    -0.054 A 
HETATM   11  C9  FMN A 152      36.778  10.933  21.718  1.00 12.31     0.039 A 
HETATM   12  C10 FMN A 152      37.093  14.190  20.098  1.00 11.58     0.142 A 
HETATM   13  N10 FMN A 152      36.623  12.910  20.344  1.00 14.21    -0.327 N 
HETATM   14  C4A FMN A 152      38.284  14.636  20.702  1.00 11.49     0.129 A 
HETATM   15  C5A FMN A 152      38.552  12.566  21.871  1.00  7.85     0.060 A 
HETATM   16  C7M FMN A 152      39.358   9.764  24.231  1.00 17.70     0.049 C 
HETATM   17  C8M FMN A 152      36.803   8.948  23.073  1.00  9.61     0.049 C 
HETATM   18  C9A FMN A 152      37.321  12.173  21.322  1.00 10.60     0.063 A 
HETATM   19  H3  FMN A 152      38.210  17.733  19.490  1.00 20.00     0.171 HD
ENDROOT
BRANCH  13  20
HETATM   20  C1' FMN A 152      35.390  12.565  19.775  1.00 12.50     0.165 C 
BRANCH  20  21
HETATM   21  C2' FMN A 152      35.579  11.658  18.560  1.00  4.22     0.167 C 
BRANCH  21  22
HETATM   22  O2' FMN A 152      36.072  12.467  17.464  1.00 11.74    -0.391 OA
HETATM   23  H2' FMN A 152      35.803  13.369  17.589  1.00 20.00     0.210 HD
ENDBRANCH  21  22
BRANCH  21  24
HETATM   24  C3' FMN A 152      34.202  11.025  18.253  1.00 10.81     0.179 C 
BRANCH  24  25
HETATM   25  O3' FMN A 152      34.241  10.386  16.953  1.00 12.86    -0.390 OA
HETATM   26  H3' FMN A 152      34.126  11.039  16.274  1.00 20.00     0.210 HD
ENDBRANCH  24  25
BRANCH  24  27
HETATM   27  C4' FMN A 152      33.039  11.964  18.325  1.00  7.88     0.173 C 
BRANCH  27  28
HETATM   28  O4' FMN A 152      31.866  11.224  18.823  1.00  9.93    -0.391 OA
HETATM   29  H4' FMN A 152      31.119  11.398  18.262  1.00 20.00     0.210 HD
ENDBRANCH  27  28
BRANCH  27  30
HETATM   30  C5' FMN A 152      32.632  12.561  17.087  1.00 10.12     0.217 C 
BRANCH  30  31
HETATM   31  O5' FMN A 152      32.058  13.846  17.409  1.00  8.45    -0.280 OA
BRANCH  31  32
HETATM   32  P   FMN A 152      33.007  15.174  17.563  1.00  6.03     0.422 P 
HETATM   33  O1P FMN A 152      32.455  16.558  16.808  1.00 11.39    -0.617 OA
HETATM   34  O2P FMN A 152      34.518  14.816  16.848  1.00 10.51    -0.617 OA
HETATM   35  O3P FMN A 152      33.261  15.443  19.168  1.00  8.79    -0.617 OA
ENDBRANCH  31  32
ENDBRANCH  30  31
ENDBRANCH  27  30
ENDBRANCH  24  27
ENDBRANCH  21  24
ENDBRANCH  20  21
ENDBRANCH  13  20
BRANCH   3  36
HETATM   36  O2  FMN A 152      35.936  17.115  18.432  1.00 15.20    -0.332 OA
ATOM     37  H2  FMN A 152      36.065  18.047  18.556  1.00  0.00     0.221 HD
ENDBRANCH   3  36
BRANCH   5  38
HETATM   38  O4  FMN A 152      39.902  16.377  21.012  1.00 13.93    -0.344 OA
ATOM     39  H4  FMN A 152      40.308  15.936  21.749  1.00  0.00     0.219 HD
ENDBRANCH   5  38
TORSDOF 12
ENDMDL
MODEL 6
REMARK VINA RESULT:    -5.236      2.788      6.013
REMARK INTER + INTRA:         -10.031
REMARK INTER:                  -7.646
REMARK INTRA:                  -2.385
REMARK UNBOUND:                -1.887
REMARK  12 active torsions:
REMARK  status: ('A' for Active; 'I' for Inactive)
REMARK    1  A    between atoms: P_1  and  O5'_31 
REMARK    2  A    between atoms: C2_4  and  O2_5 
REMARK    3  A    between atoms: C4_8  and  O4_9 
REMARK    4  A    between atoms: C1'_17  and  N10_19 
REMARK    5  A    between atoms: C1'_17  and  C2'_21 
REMARK    6  A    between atoms: C2'_21  and  O2'_22 
REMARK    7  A    between atoms: C2'_21  and  C3'_24 
REMARK    8  A    between atoms: C3'_24  and  O3'_25 
REMARK    9  A    between atoms: C3'_24  and  C4'_27 
REMARK   10  A    between atoms: C4'_27  and  O4'_28 
REMARK   11  A    between atoms: C4'_27  and  C5'_30 
REMARK   12  A    between atoms: C5'_30  and  O5'_31 
ROOT
HETATM    1  N1  FMN A 152      43.845   6.312  11.682  1.00 10.21    -0.306 N 
ATOM      2  H1  FMN A 152      42.963   6.703  11.350  1.00  0.00     0.171 HD
HETATM    3  C2  FMN A 152      44.997   6.334  10.911  1.00  5.15     0.224 A 
HETATM    4  N3  FMN A 152      46.219   5.878  11.338  1.00 10.89    -0.301 N 
HETATM    5  C4  FMN A 152      46.348   5.365  12.627  1.00  8.86     0.174 A 
HETATM    6  N5  FMN A 152      45.317   4.782  14.729  1.00 10.27    -0.348 N 
ATOM      7  H5  FMN A 152      46.175   4.315  15.024  1.00  0.00     0.166 HD
HETATM    8  C6  FMN A 152      44.411   4.552  16.966  1.00 13.25     0.039 A 
HETATM    9  C7  FMN A 152      43.318   4.751  17.830  1.00 17.54    -0.054 A 
HETATM   10  C8  FMN A 152      42.101   5.238  17.337  1.00 14.42    -0.054 A 
HETATM   11  C9  FMN A 152      41.939   5.562  15.962  1.00 12.31     0.039 A 
HETATM   12  C10 FMN A 152      43.962   5.728  12.928  1.00 11.58     0.142 A 
HETATM   13  N10 FMN A 152      42.830   5.725  13.726  1.00 14.21    -0.327 N 
HETATM   14  C4A FMN A 152      45.199   5.301  13.449  1.00 11.49     0.129 A 
HETATM   15  C5A FMN A 152      44.238   4.911  15.605  1.00  7.85     0.060 A 
HETATM   16  C7M FMN A 152      43.461   4.446  19.245  1.00 17.70     0.049 C 
HETATM   17  C8M FMN A 152      40.958   5.487  18.156  1.00  9.61     0.049 C 
HETATM   18  C9A FMN A 152      43.035   5.416  15.087  1.00 10.60     0.063 A 
HETATM   19  H3  FMN A 152      47.011   5.915  10.728  1.00 20.00     0.171 HD
ENDROOT
BRANCH  13  20
HETATM   20  C1' FMN A 152      41.654   6.240  13.165  1.00 12.50     0.165 C 
BRANCH  20  21
HETATM   21  C2' FMN A 152      40.740   5.118  12.676  1.00  4.22     0.167 C 
BRANCH  21  22
HETATM   22  O2' FMN A 152      41.296   4.582  11.451  1.00 11.74    -0.391 OA
HETATM   23  H2' FMN A 152      42.237   4.719  11.443  1.00 20.00     0.210 HD
ENDBRANCH  21  22
BRANCH  21  24
HETATM   24  C3' FMN A 152      39.340   5.738  12.466  1.00 10.81     0.179 C 
BRANCH  24  25
HETATM   25  O3' FMN A 152      38.517   4.828  11.694  1.00 12.86    -0.390 OA
HETATM   26  H3' FMN A 152      38.818   4.815  10.793  1.00 20.00     0.210 HD
ENDBRANCH  24  25
BRANCH  24  27
HETATM   27  C4' FMN A 152      39.332   7.095  11.833  1.00  7.88     0.173 C 
BRANCH  27  28
HETATM   28  O4' FMN A 152      38.340   7.933  12.529  1.00  9.93    -0.391 OA
HETATM   29  H4' FMN A 152      38.401   7.786  13.466  1.00 20.00     0.210 HD
ENDBRANCH  27  28
BRANCH  27  30
HETATM   30  C5' FMN A 152      38.983   7.142  10.444  1.00 10.12     0.217 C 
BRANCH  30  31
HETATM   31  O5' FMN A 152      39.757   8.207   9.851  1.00  8.45    -0.280 OA
BRANCH  31  32
HETATM   32  P   FMN A 152      41.307   7.956   9.381  1.00  6.03     0.422 P 
HETATM   33  O1P FMN A 152      41.774   6.358   9.230  1.00 11.39    -0.617 OA
HETATM   34  O2P FMN A 152      42.326   8.635  10.574  1.00 10.51    -0.617 OA
HETATM   35  O3P FMN A 152      41.559   8.777   7.976  1.00  8.79    -0.617 OA
ENDBRANCH  31  32
ENDBRANCH  30  31
ENDBRANCH  27  30
ENDBRANCH  24  27
ENDBRANCH  21  24
ENDBRANCH  20  21
ENDBRANCH  13  20
BRANCH   3  36
HETATM   36  O2  FMN A 152      44.853   6.867   9.676  1.00 15.20    -0.332 OA
ATOM     37  H2  FMN A 152      45.507   6.600   9.041  1.00  0.00     0.221 HD
ENDBRANCH   3  36
BRANCH   5  38
HETATM   38  O4  FMN A 152      47.537   4.892  13.115  1.00 13.93    -0.344 OA
ATOM     39  H4  FMN A 152      47.739   4.881  14.043  1.00  0.00     0.219 HD
ENDBRANCH   5  38
TORSDOF 12
ENDMDL
MODEL 7
REMARK VINA RESULT:    -5.205      3.684      6.717
REMARK INTER + INTRA:          -9.982
REMARK INTER:                  -8.613
REMARK INTRA:                  -1.369
REMARK UNBOUND:                -1.887
REMARK  12 active torsions:
REMARK  status: ('A' for Active; 'I' for Inactive)
REMARK    1  A    between atoms: P_1  and  O5'_31 
REMARK    2  A    between atoms: C2_4  and  O2_5 
REMARK    3  A    between atoms: C4_8  and  O4_9 
REMARK    4  A    between atoms: C1'_17  and  N10_19 
REMARK    5  A    between atoms: C1'_17  and  C2'_21 
REMARK    6  A    between atoms: C2'_21  and  O2'_22 
REMARK    7  A    between atoms: C2'_21  and  C3'_24 
REMARK    8  A    between atoms: C3'_24  and  O3'_25 
REMARK    9  A    between atoms: C3'_24  and  C4'_27 
REMARK   10  A    between atoms: C4'_27  and  O4'_28 
REMARK   11  A    between atoms: C4'_27  and  C5'_30 
REMARK   12  A    between atoms: C5'_30  and  O5'_31 
ROOT
HETATM    1  N1  FMN A 152      44.203   5.355  13.634  1.00 10.21    -0.306 N 
ATOM      2  H1  FMN A 152      43.655   5.114  12.809  1.00  0.00     0.171 HD
HETATM    3  C2  FMN A 152      45.479   5.890  13.538  1.00  5.15     0.224 A 
HETATM    4  N3  FMN A 152      46.230   6.290  14.615  1.00 10.89    -0.301 N 
HETATM    5  C4  FMN A 152      45.703   6.174  15.900  1.00  8.86     0.174 A 
HETATM    6  N5  FMN A 152      43.886   5.489  17.332  1.00 10.27    -0.348 N 
ATOM      7  H5  FMN A 152      44.468   5.650  18.154  1.00  0.00     0.166 HD
HETATM    8  C6  FMN A 152      41.946   5.184  18.754  1.00 13.25     0.039 A 
HETATM    9  C7  FMN A 152      40.575   4.876  18.842  1.00 17.54    -0.054 A 
HETATM   10  C8  FMN A 152      39.858   4.493  17.702  1.00 14.42    -0.054 A 
HETATM   11  C9  FMN A 152      40.483   4.422  16.426  1.00 12.31     0.039 A 
HETATM   12  C10 FMN A 152      43.721   5.169  14.914  1.00 11.58     0.142 A 
HETATM   13  N10 FMN A 152      42.435   4.666  15.031  1.00 14.21    -0.327 N 
HETATM   14  C4A FMN A 152      44.413   5.617  16.056  1.00 11.49     0.129 A 
HETATM   15  C5A FMN A 152      42.542   5.136  17.468  1.00  7.85     0.060 A 
HETATM   16  C7M FMN A 152      39.906   4.960  20.130  1.00 17.70     0.049 C 
HETATM   17  C8M FMN A 152      38.463   4.190  17.709  1.00  9.61     0.049 C 
HETATM   18  C9A FMN A 152      41.843   4.772  16.306  1.00 10.60     0.063 A 
HETATM   19  H3  FMN A 152      47.149   6.660  14.479  1.00 20.00     0.171 HD
ENDROOT
BRANCH  13  20
HETATM   20  C1' FMN A 152      41.779   4.317  13.843  1.00 12.50     0.165 C 
BRANCH  20  21
HETATM   21  C2' FMN A 152      41.306   5.560  13.090  1.00  4.22     0.167 C 
BRANCH  21  22
HETATM   22  O2' FMN A 152      39.904   5.766  13.392  1.00 11.74    -0.391 OA
HETATM   23  H2' FMN A 152      39.782   5.784  14.334  1.00 20.00     0.210 HD
ENDBRANCH  21  22
BRANCH  21  24
HETATM   24  C3' FMN A 152      41.553   5.296  11.587  1.00 10.81     0.179 C 
BRANCH  24  25
HETATM   25  O3' FMN A 152      42.431   4.153  11.433  1.00 12.86    -0.390 OA
HETATM   26  H3' FMN A 152      42.706   3.847  12.289  1.00 20.00     0.210 HD
ENDBRANCH  24  25
BRANCH  24  27
HETATM   27  C4' FMN A 152      42.091   6.460  10.815  1.00  7.88     0.173 C 
BRANCH  27  28
HETATM   28  O4' FMN A 152      42.942   7.265  11.708  1.00  9.93    -0.391 OA
HETATM   29  H4' FMN A 152      43.432   6.690  12.284  1.00 20.00     0.210 HD
ENDBRANCH  27  28
BRANCH  27  30
HETATM   30  C5' FMN A 152      41.118   7.364  10.275  1.00 10.12     0.217 C 
BRANCH  30  31
HETATM   31  O5' FMN A 152      40.525   8.060  11.392  1.00  8.45    -0.280 OA
BRANCH  31  32
HETATM   32  P   FMN A 152      39.002   8.657  11.295  1.00  6.03     0.422 P 
HETATM   33  O1P FMN A 152      38.866  10.322  11.333  1.00 11.39    -0.617 OA
HETATM   34  O2P FMN A 152      38.133   8.081  12.650  1.00 10.51    -0.617 OA
HETATM   35  O3P FMN A 152      38.291   8.041   9.942  1.00  8.79    -0.617 OA
ENDBRANCH  31  32
ENDBRANCH  30  31
ENDBRANCH  27  30
ENDBRANCH  24  27
ENDBRANCH  21  24
ENDBRANCH  20  21
ENDBRANCH  13  20
BRANCH   3  36
HETATM   36  O2  FMN A 152      45.956   6.022  12.279  1.00 15.20    -0.332 OA
ATOM     37  H2  FMN A 152      46.092   5.208  11.810  1.00  0.00     0.221 HD
ENDBRANCH   3  36
BRANCH   5  38
HETATM   38  O4  FMN A 152      46.399   6.552  17.017  1.00 13.93    -0.344 OA
ATOM     39  H4  FMN A 152      46.700   5.926  17.666  1.00  0.00     0.219 HD
ENDBRANCH   5  38
TORSDOF 12
ENDMDL
MODEL 8
REMARK VINA RESULT:    -5.121      1.957      2.765
REMARK INTER + INTRA:          -9.852
REMARK INTER:                  -8.315
REMARK INTRA:                  -1.537
REMARK UNBOUND:                -1.887
REMARK  12 active torsions:
REMARK  status: ('A' for Active; 'I' for Inactive)
REMARK    1  A    between atoms: P_1  and  O5'_31 
REMARK    2  A    between atoms: C2_4  and  O2_5 
REMARK    3  A    between atoms: C4_8  and  O4_9 
REMARK    4  A    between atoms: C1'_17  and  N10_19 
REMARK    5  A    between atoms: C1'_17  and  C2'_21 
REMARK    6  A    between atoms: C2'_21  and  O2'_22 
REMARK    7  A    between atoms: C2'_21  and  C3'_24 
REMARK    8  A    between atoms: C3'_24  and  O3'_25 
REMARK    9  A    between atoms: C3'_24  and  C4'_27 
REMARK   10  A    between atoms: C4'_27  and  O4'_28 
REMARK   11  A    between atoms: C4'_27  and  C5'_30 
REMARK   12  A    between atoms: C5'_30  and  O5'_31 
ROOT
HETATM    1  N1  FMN A 152      43.063   5.946  14.155  1.00 10.21    -0.306 N 
ATOM      2  H1  FMN A 152      42.210   5.869  13.602  1.00  0.00     0.171 HD
HETATM    3  C2  FMN A 152      43.048   6.365  15.477  1.00  5.15     0.224 A 
HETATM    4  N3  FMN A 152      44.160   6.423  16.279  1.00 10.89    -0.301 N 
HETATM    5  C4  FMN A 152      45.397   6.033  15.768  1.00  8.86     0.174 A 
HETATM    6  N5  FMN A 152      46.700   5.237  13.900  1.00 10.27    -0.348 N 
ATOM      7  H5  FMN A 152      47.559   5.397  14.427  1.00  0.00     0.166 HD
HETATM    8  C6  FMN A 152      47.957   4.074  12.184  1.00 13.25     0.039 A 
HETATM    9  C7  FMN A 152      47.941   3.423  10.937  1.00 17.54    -0.054 A 
HETATM   10  C8  FMN A 152      46.769   3.380  10.172  1.00 14.42    -0.054 A 
HETATM   11  C9  FMN A 152      45.562   3.973  10.637  1.00 12.31     0.039 A 
HETATM   12  C10 FMN A 152      44.304   5.639  13.632  1.00 11.58     0.142 A 
HETATM   13  N10 FMN A 152      44.337   5.188  12.323  1.00 14.21    -0.327 N 
HETATM   14  C4A FMN A 152      45.472   5.616  14.419  1.00 11.49     0.129 A 
HETATM   15  C5A FMN A 152      46.737   4.633  12.643  1.00  7.85     0.060 A 
HETATM   16  C7M FMN A 152      49.155   2.790  10.445  1.00 17.70     0.049 C 
HETATM   17  C8M FMN A 152      46.670   2.718   8.911  1.00  9.61     0.049 C 
HETATM   18  C9A FMN A 152      45.544   4.590  11.905  1.00 10.60     0.063 A 
HETATM   19  H3  FMN A 152      44.083   6.743  17.224  1.00 20.00     0.171 HD
ENDROOT
BRANCH  13  20
HETATM   20  C1' FMN A 152      43.120   5.164  11.628  1.00 12.50     0.165 C 
BRANCH  20  21
HETATM   21  C2' FMN A 152      42.929   6.438  10.808  1.00  4.22     0.167 C 
BRANCH  21  22
HETATM   22  O2' FMN A 152      42.448   7.479  11.694  1.00 11.74    -0.391 OA
HETATM   23  H2' FMN A 152      42.485   8.317  11.248  1.00 20.00     0.210 HD
ENDBRANCH  21  22
BRANCH  21  24
HETATM   24  C3' FMN A 152      41.917   6.104   9.688  1.00 10.81     0.179 C 
BRANCH  24  25
HETATM   25  O3' FMN A 152      42.511   5.160   8.763  1.00 12.86    -0.390 OA
HETATM   26  H3' FMN A 152      43.458   5.212   8.821  1.00 20.00     0.210 HD
ENDBRANCH  24  25
BRANCH  24  27
HETATM   27  C4' FMN A 152      41.383   7.284   8.938  1.00  7.88     0.173 C 
BRANCH  27  28
HETATM   28  O4' FMN A 152      42.225   8.455   9.240  1.00  9.93    -0.391 OA
HETATM   29  H4' FMN A 152      42.267   8.582  10.181  1.00 20.00     0.210 HD
ENDBRANCH  27  28
BRANCH  27  30
HETATM   30  C5' FMN A 152      40.038   7.674   9.248  1.00 10.12     0.217 C 
BRANCH  30  31
HETATM   31  O5' FMN A 152      40.114   8.608  10.346  1.00  8.45    -0.280 OA
BRANCH  31  32
HETATM   32  P   FMN A 152      39.175   8.416  11.677  1.00  6.03     0.422 P 
HETATM   33  O1P FMN A 152      37.543   8.703  11.465  1.00 11.39    -0.617 OA
HETATM   34  O2P FMN A 152      39.704   9.539  12.851  1.00 10.51    -0.617 OA
HETATM   35  O3P FMN A 152      39.432   6.903  12.275  1.00  8.79    -0.617 OA
ENDBRANCH  31  32
ENDBRANCH  30  31
ENDBRANCH  27  30
ENDBRANCH  24  27
ENDBRANCH  21  24
ENDBRANCH  20  21
ENDBRANCH  13  20
BRANCH   3  36
HETATM   36  O2  FMN A 152      41.832   6.706  15.959  1.00 15.20    -0.332 OA
ATOM     37  H2  FMN A 152      41.212   7.018  15.311  1.00  0.00     0.221 HD
ENDBRANCH   3  36
BRANCH   5  38
HETATM   38  O4  FMN A 152      46.545   6.069  16.514  1.00 13.93    -0.344 OA
ATOM     39  H4  FMN A 152      46.657   5.550  17.301  1.00  0.00     0.219 HD
ENDBRANCH   5  38
TORSDOF 12
ENDMDL
MODEL 9
REMARK VINA RESULT:    -5.035     12.063     14.602
REMARK INTER + INTRA:          -9.719
REMARK INTER:                  -8.224
REMARK INTRA:                  -1.495
REMARK UNBOUND:                -1.887
REMARK  12 active torsions:
REMARK  status: ('A' for Active; 'I' for Inactive)
REMARK    1  A    between atoms: P_1  and  O5'_31 
REMARK    2  A    between atoms: C2_4  and  O2_5 
REMARK    3  A    between atoms: C4_8  and  O4_9 
REMARK    4  A    between atoms: C1'_17  and  N10_19 
REMARK    5  A    between atoms: C1'_17  and  C2'_21 
REMARK    6  A    between atoms: C2'_21  and  O2'_22 
REMARK    7  A    between atoms: C2'_21  and  C3'_24 
REMARK    8  A    between atoms: C3'_24  and  O3'_25 
REMARK    9  A    between atoms: C3'_24  and  C4'_27 
REMARK   10  A    between atoms: C4'_27  and  O4'_28 
REMARK   11  A    between atoms: C4'_27  and  C5'_30 
REMARK   12  A    between atoms: C5'_30  and  O5'_31 
ROOT
HETATM    1  N1  FMN A 152      39.021  15.334  22.277  1.00 10.21    -0.306 N 
ATOM      2  H1  FMN A 152      39.096  15.874  21.415  1.00  0.00     0.171 HD
HETATM    3  C2  FMN A 152      39.041  15.936  23.526  1.00  5.15     0.224 A 
HETATM    4  N3  FMN A 152      38.880  15.260  24.710  1.00 10.89    -0.301 N 
HETATM    5  C4  FMN A 152      38.669  13.882  24.691  1.00  8.86     0.174 A 
HETATM    6  N5  FMN A 152      38.460  11.844  23.417  1.00 10.27    -0.348 N 
ATOM      7  H5  FMN A 152      38.472  11.299  24.280  1.00  0.00     0.166 HD
HETATM    8  C6  FMN A 152      37.856   9.859  22.162  1.00 13.25     0.039 A 
HETATM    9  C7  FMN A 152      37.591   9.285  20.905  1.00 17.54    -0.054 A 
HETATM   10  C8  FMN A 152      37.756  10.033  19.732  1.00 14.42    -0.054 A 
HETATM   11  C9  FMN A 152      38.175  11.391  19.777  1.00 12.31     0.039 A 
HETATM   12  C10 FMN A 152      38.893  13.959  22.271  1.00 11.58     0.142 A 
HETATM   13  N10 FMN A 152      38.838  13.342  21.032  1.00 14.21    -0.327 N 
HETATM   14  C4A FMN A 152      38.659  13.215  23.444  1.00 11.49     0.129 A 
HETATM   15  C5A FMN A 152      38.244  11.224  22.186  1.00  7.85     0.060 A 
HETATM   16  C7M FMN A 152      37.142   7.904  20.831  1.00 17.70     0.049 C 
HETATM   17  C8M FMN A 152      37.484   9.527  18.426  1.00  9.61     0.049 C 
HETATM   18  C9A FMN A 152      38.401  12.001  21.027  1.00 10.60     0.063 A 
HETATM   19  H3  FMN A 152      38.913  15.752  25.580  1.00 20.00     0.171 HD
ENDROOT
BRANCH  13  20
HETATM   20  C1' FMN A 152      39.000  14.161  19.906  1.00 12.50     0.165 C 
BRANCH  20  21
HETATM   21  C2' FMN A 152      37.649  14.630  19.369  1.00  4.22     0.167 C 
BRANCH  21  22
HETATM   22  O2' FMN A 152      37.413  13.972  18.100  1.00 11.74    -0.391 OA
HETATM   23  H2' FMN A 152      36.602  14.293  17.722  1.00 20.00     0.210 HD
ENDBRANCH  21  22
BRANCH  21  24
HETATM   24  C3' FMN A 152      37.731  16.168  19.229  1.00 10.81     0.179 C 
BRANCH  24  25
HETATM   25  O3' FMN A 152      38.979  16.640  19.796  1.00 12.86    -0.390 OA
HETATM   26  H3' FMN A 152      39.479  15.901  20.122  1.00 20.00     0.210 HD
ENDBRANCH  24  25
BRANCH  24  27
HETATM   27  C4' FMN A 152      36.583  16.925  19.820  1.00  7.88     0.173 C 
BRANCH  27  28
HETATM   28  O4' FMN A 152      36.830  17.105  21.261  1.00  9.93    -0.391 OA
HETATM   29  H4' FMN A 152      36.771  18.028  21.480  1.00 20.00     0.210 HD
ENDBRANCH  27  28
BRANCH  27  30
HETATM   30  C5' FMN A 152      35.295  16.304  19.714  1.00 10.12     0.217 C 
BRANCH  30  31
HETATM   31  O5' FMN A 152      34.994  16.197  18.306  1.00  8.45    -0.280 OA
BRANCH  31  32
HETATM   32  P   FMN A 152      33.871  15.131  17.768  1.00  6.03     0.422 P 
HETATM   33  O1P FMN A 152      32.932  14.404  18.944  1.00 11.39    -0.617 OA
HETATM   34  O2P FMN A 152      34.698  13.864  16.974  1.00 10.51    -0.617 OA
HETATM   35  O3P FMN A 152      32.929  15.894  16.652  1.00  8.79    -0.617 OA
ENDBRANCH  31  32
ENDBRANCH  30  31
ENDBRANCH  27  30
ENDBRANCH  24  27
ENDBRANCH  21  24
ENDBRANCH  20  21
ENDBRANCH  13  20
BRANCH   3  36
HETATM   36  O2  FMN A 152      39.214  17.277  23.517  1.00 15.20    -0.332 OA
ATOM     37  H2  FMN A 152      39.503  17.654  24.339  1.00  0.00     0.221 HD
ENDBRANCH   3  36
BRANCH   5  38
HETATM   38  O4  FMN A 152      38.503  13.148  25.834  1.00 13.93    -0.344 OA
ATOM     39  H4  FMN A 152      39.234  12.769  26.307  1.00  0.00     0.219 HD
ENDBRANCH   5  38
TORSDOF 12
ENDMDL
