REMARK  12 active torsions:
REMARK  status: ('A' for Active; 'I' for Inactive)
REMARK    1  A    between atoms: P_1  and  O5'_31 
REMARK    2  A    between atoms: C2_4  and  O2_5 
REMARK    3  A    between atoms: C4_8  and  O4_9 
REMARK    4  A    between atoms: C1'_17  and  N10_19 
REMARK    5  A    between atoms: C1'_17  and  C2'_21 
REMARK    6  A    between atoms: C2'_21  and  O2'_22 
REMARK    7  A    between atoms: C2'_21  and  C3'_24 
REMARK    8  A    between atoms: C3'_24  and  O3'_25 
REMARK    9  A    between atoms: C3'_24  and  C4'_27 
REMARK   10  A    between atoms: C4'_27  and  O4'_28 
REMARK   11  A    between atoms: C4'_27  and  C5'_30 
REMARK   12  A    between atoms: C5'_30  and  O5'_31 
ROOT
HETATM    1  N1  FMN A 152      51.795  11.987  21.491  1.00 10.21    -0.306 N 
ATOM      2  H1  FMN A 152      52.673  12.042  20.975  1.00  0.00     0.171 HD
HETATM    3  C2  FMN A 152      50.723  11.232  21.040  1.00  5.15     0.224 A 
HETATM    4  N3  FMN A 152      49.546  11.076  21.729  1.00 10.89    -0.301 N 
HETATM    5  C4  FMN A 152      49.390  11.693  22.969  1.00  8.86     0.174 A 
HETATM    6  N5  FMN A 152      50.294  13.116  24.695  1.00 10.27    -0.348 N 
ATOM      7  H5  FMN A 152      49.388  13.129  25.164  1.00  0.00     0.166 HD
HETATM    8  C6  FMN A 152      51.310  14.205  26.608  1.00 13.25     0.039 A 
HETATM    9  C7  FMN A 152      52.469  14.763  27.179  1.00 17.54    -0.054 A 
HETATM   10  C8  FMN A 152      53.647  14.877  26.430  1.00 14.42    -0.054 A 
HETATM   11  C9  FMN A 152      53.713  14.419  25.085  1.00 12.31     0.039 A 
HETATM   12  C10 FMN A 152      51.602  12.660  22.681  1.00 11.58     0.142 A 
HETATM   13  N10 FMN A 152      52.673  13.394  23.165  1.00 14.21    -0.327 N 
HETATM   14  C4A FMN A 152      50.446  12.491  23.467  1.00 11.49     0.129 A 
HETATM   15  C5A FMN A 152      51.406  13.727  25.276  1.00  7.85     0.060 A 
HETATM   16  C7M FMN A 152      52.436  15.221  28.559  1.00 17.70     0.049 C 
HETATM   17  C8M FMN A 152      54.866  15.409  26.948  1.00  9.61     0.049 C 
HETATM   18  C9A FMN A 152      52.578  13.814  24.508  1.00 10.60     0.063 A 
HETATM   19  H3  FMN A 152      48.806  10.524  21.344  1.00 20.00     0.171 HD
ENDROOT
BRANCH  13  20
HETATM   20  C1' FMN A 152      53.820  13.450  22.362  1.00 12.50     0.165 C 
BRANCH  20  21
HETATM   21  C2' FMN A 152      53.959  14.818  21.696  1.00  4.22     0.167 C 
BRANCH  21  22
HETATM   22  O2' FMN A 152      52.834  15.002  20.802  1.00 11.74    -0.391 OA
HETATM   23  H2' FMN A 152      52.032  14.750  21.245  1.00 20.00     0.210 HD
ENDBRANCH  21  22
BRANCH  21  24
HETATM   24  C3' FMN A 152      55.312  14.818  20.948  1.00 10.81     0.179 C 
BRANCH  24  25
HETATM   25  O3' FMN A 152      56.389  15.032  21.894  1.00 12.86    -0.390 OA
HETATM   26  H3' FMN A 152      57.130  15.425  21.448  1.00 20.00     0.210 HD
ENDBRANCH  24  25
BRANCH  24  27
HETATM   27  C4' FMN A 152      55.419  15.799  19.823  1.00  7.88     0.173 C 
BRANCH  27  28
HETATM   28  O4' FMN A 152      56.694  15.573  19.120  1.00  9.93    -0.391 OA
HETATM   29  H4' FMN A 152      56.751  16.155  18.371  1.00 20.00     0.210 HD
ENDBRANCH  27  28
BRANCH  27  30
HETATM   30  C5' FMN A 152      55.411  17.185  20.190  1.00 10.12     0.217 C 
BRANCH  30  31
HETATM   31  O5' FMN A 152      55.198  17.940  18.978  1.00  8.45    -0.280 OA
BRANCH  31  32
HETATM   32  P   FMN A 152      55.258  19.578  18.989  1.00  6.03     0.422 P 
HETATM   33  O1P FMN A 152      54.128  20.343  19.954  1.00 11.39    -0.617 OA
HETATM   34  O2P FMN A 152      54.960  20.118  17.395  1.00 10.51    -0.617 OA
HETATM   35  O3P FMN A 152      56.786  20.036  19.399  1.00  8.79    -0.617 OA
ENDBRANCH  31  32
ENDBRANCH  30  31
ENDBRANCH  27  30
ENDBRANCH  24  27
ENDBRANCH  21  24
ENDBRANCH  20  21
ENDBRANCH  13  20
BRANCH   3  36
HETATM   36  O2  FMN A 152      50.911  10.617  19.850  1.00 15.20    -0.332 OA
ATOM     37  H2  FMN A 152      50.177  10.100  19.541  1.00  0.00     0.221 HD
ENDBRANCH   3  36
BRANCH   5  38
HETATM   38  O4  FMN A 152      48.242  11.580  23.707  1.00 13.93    -0.344 OA
ATOM     39  H4  FMN A 152      48.136  12.001  24.552  1.00  0.00     0.219 HD
ENDBRANCH   5  38
TORSDOF 12
