stable:False satoms:10 tatoms:24 sratio:0.4166666666666667
  -OEChem-08062407173D

 29 29  0     0  0  0  0  0  0999 V2000
   -6.5544   -5.4530  -26.2462 Cl  0  0  0  0  0  0  0  0  0  0  0  0
   -8.3208   -4.7942  -25.9964 S   0  0  0  0  0  0  0  0  0  0  0  0
   -9.1356   -5.8766  -25.6805 O   0  0  0  0  0  0  0  0  0  0  0  0
   -8.5668   -4.0704  -27.1488 O   0  0  0  0  0  0  0  0  0  0  0  0
   -8.1267   -3.8863  -24.7783 N   0  0  0  0  0  0  0  0  0  0  0  0
   -8.7357   -3.2005  -24.2711 C   0  0  0  0  0  0  0  0  0  0  0  0
   -9.1443   -2.2500  -23.4648 C   0  0  0  0  0  0  0  0  0  0  0  0
  -10.8979   -1.3380  -23.6149 C   0  0  0  0  0  0  0  0  0  0  0  0
  -10.9313   -1.1297  -24.6673 H   0  0  0  0  0  0  0  0  0  0  0  0
  -12.8858   -0.0082  -24.1999 O   0  0  0  0  0  0  0  0  0  0  0  0
  -13.1939   -0.5126  -24.9111 H   0  0  0  0  0  0  0  0  0  0  0  0
  -13.0401   -0.8143  -23.1408 N   0  0  0  0  0  0  0  0  0  0  0  0
  -12.1033   -1.4000  -23.1313 C   0  0  0  0  0  0  0  0  0  0  0  0
   -9.7336   -1.3501  -22.8851 C   0  0  0  0  0  0  0  0  0  0  0  0
   -9.2449   -0.5017  -21.6744 C   0  0  0  0  0  0  0  0  0  0  0  0
   -9.8884    0.4001  -21.2288 O   0  0  0  0  0  0  0  0  0  0  0  0
   -8.0588   -0.9224  -21.2747 N   0  0  0  0  0  0  0  0  0  0  0  0
   -7.3301   -0.3590  -20.3219 C   0  0  0  0  0  0  0  0  0  0  0  0
   -7.5580   -0.1815  -19.0273 C   0  0  0  0  0  0  0  0  0  0  0  0
   -6.7114    0.2644  -18.2330 N   0  0  0  0  0  0  0  0  0  0  0  0
   -5.7246    0.5375  -19.0831 C   0  0  0  0  0  0  0  0  0  0  0  0
   -4.8148    1.0427  -18.8339 H   0  0  0  0  0  0  0  0  0  0  0  0
   -5.9938    0.0966  -20.4412 C   0  0  0  0  0  0  0  0  0  0  0  0
   -5.3986    0.1299  -21.3475 H   0  0  0  0  0  0  0  0  0  0  0  0
   -7.3332   -3.3343  -25.0345 H   0  0  0  0  0  0  0  0  0  0  0  0
  -12.2261   -2.2960  -22.5410 H   0  0  0  0  0  0  0  0  0  0  0  0
   -7.6804   -1.7301  -21.7268 H   0  0  0  0  0  0  0  0  0  0  0  0
   -8.5333   -0.4388  -18.6414 H   0  0  0  0  0  0  0  0  0  0  0  0
   -6.7585    0.3835  -17.2412 H   0  0  0  0  0  0  0  0  0  0  0  0
 19 20  1  0  0  0  0
 20 21  1  0  0  0  0
 21 22  1  0  0  0  0
 18 19  2  0  0  0  0
 21 23  2  0  0  0  0
 18 23  1  0  0  0  0
 17 18  1  0  0  0  0
 23 24  1  0  0  0  0
 15 16  2  0  0  0  0
 15 17  1  0  0  0  0
 14 15  1  0  0  0  0
  7 14  1  0  0  0  0
  8 14  2  3  0  0  0
 12 13  2  0  0  0  0
 10 12  1  0  0  0  0
  8 13  1  0  0  0  0
  6  7  3  0  0  0  0
  8  9  1  0  0  0  0
 10 11  1  0  0  0  0
  5  6  1  0  0  0  0
  2  5  1  0  0  0  0
  2  3  2  0  0  0  0
  1  2  1  0  0  0  0
  2  4  2  0  0  0  0
  5 25  1  0  0  0  0
 13 26  1  0  0  0  0
 17 27  1  0  0  0  0
 19 28  1  0  0  0  0
 20 29  1  0  0  0  0
M  END
> <Chemgauss4>
-7.006837

$$$$
