stable:False satoms:10 tatoms:24 sratio:0.4166666666666667
  -OEChem-08062407183D

 29 29  0     0  0  0  0  0  0999 V2000
    6.8329   -5.4251   26.2085 Cl  0  0  0  0  0  0  0  0  0  0  0  0
    8.5992   -4.7662   25.9587 S   0  0  0  0  0  0  0  0  0  0  0  0
    9.4140   -5.8486   25.6427 O   0  0  0  0  0  0  0  0  0  0  0  0
    8.8453   -4.0424   27.1110 O   0  0  0  0  0  0  0  0  0  0  0  0
    8.4052   -3.8583   24.7405 N   0  0  0  0  0  0  0  0  0  0  0  0
    9.0142   -3.1725   24.2334 C   0  0  0  0  0  0  0  0  0  0  0  0
    9.4227   -2.2220   23.4271 C   0  0  0  0  0  0  0  0  0  0  0  0
   11.1763   -1.3101   23.5772 C   0  0  0  0  0  0  0  0  0  0  0  0
   11.2097   -1.1017   24.6296 H   0  0  0  0  0  0  0  0  0  0  0  0
   13.1642    0.0197   24.1621 O   0  0  0  0  0  0  0  0  0  0  0  0
   13.4724   -0.4847   24.8733 H   0  0  0  0  0  0  0  0  0  0  0  0
   13.3185   -0.7864   23.1030 N   0  0  0  0  0  0  0  0  0  0  0  0
   12.3818   -1.3720   23.0935 C   0  0  0  0  0  0  0  0  0  0  0  0
   10.0120   -1.3221   22.8474 C   0  0  0  0  0  0  0  0  0  0  0  0
    9.5234   -0.4737   21.6367 C   0  0  0  0  0  0  0  0  0  0  0  0
   10.1668    0.4281   21.1910 O   0  0  0  0  0  0  0  0  0  0  0  0
    8.3372   -0.8944   21.2369 N   0  0  0  0  0  0  0  0  0  0  0  0
    7.6085   -0.3310   20.2842 C   0  0  0  0  0  0  0  0  0  0  0  0
    7.8364   -0.1536   18.9895 C   0  0  0  0  0  0  0  0  0  0  0  0
    6.9898    0.2924   18.1952 N   0  0  0  0  0  0  0  0  0  0  0  0
    6.0030    0.5655   19.0454 C   0  0  0  0  0  0  0  0  0  0  0  0
    5.0932    1.0706   18.7961 H   0  0  0  0  0  0  0  0  0  0  0  0
    6.2722    0.1246   20.4034 C   0  0  0  0  0  0  0  0  0  0  0  0
    5.6770    0.1579   21.3097 H   0  0  0  0  0  0  0  0  0  0  0  0
    7.6116   -3.3064   24.9968 H   0  0  0  0  0  0  0  0  0  0  0  0
   12.5045   -2.2680   22.5032 H   0  0  0  0  0  0  0  0  0  0  0  0
    7.9588   -1.7021   21.6890 H   0  0  0  0  0  0  0  0  0  0  0  0
    8.8118   -0.4108   18.6036 H   0  0  0  0  0  0  0  0  0  0  0  0
    7.0370    0.4114   17.2035 H   0  0  0  0  0  0  0  0  0  0  0  0
 19 20  1  0  0  0  0
 20 21  1  0  0  0  0
 21 22  1  0  0  0  0
 18 19  2  0  0  0  0
 21 23  2  0  0  0  0
 18 23  1  0  0  0  0
 17 18  1  0  0  0  0
 23 24  1  0  0  0  0
 15 16  2  0  0  0  0
 15 17  1  0  0  0  0
 14 15  1  0  0  0  0
  7 14  1  0  0  0  0
  8 14  2  3  0  0  0
 12 13  2  0  0  0  0
 10 12  1  0  0  0  0
  8 13  1  0  0  0  0
  6  7  3  0  0  0  0
  8  9  1  0  0  0  0
 10 11  1  0  0  0  0
  5  6  1  0  0  0  0
  2  5  1  0  0  0  0
  2  3  2  0  0  0  0
  1  2  1  0  0  0  0
  2  4  2  0  0  0  0
  5 25  1  0  0  0  0
 13 26  1  0  0  0  0
 17 27  1  0  0  0  0
 19 28  1  0  0  0  0
 20 29  1  0  0  0  0
M  END
> <Chemgauss4>
-6.545186

$$$$
