REMARK  3 active torsions:
REMARK  status: ('A' for Active; 'I' for Inactive)
REMARK    1  A    between atoms: C_1  and  C_10 
REMARK    2  A    between atoms: C_2  and  N_20 
REMARK    3  A    between atoms: C_7  and  C_21 
REMARK       I    between atoms: C_7  and  N_20 
ROOT
HETATM    1  C   UNL     1       9.108   0.364  25.442  1.00  0.00     0.134 C 
HETATM    2  C   UNL     1       8.304  -0.137  22.973  1.00  0.00     0.714 C 
HETATM    3  N   UNL     1       8.418   1.078  23.431  1.00  0.00    -0.129 N 
ATOM      4  HN  UNL     1       8.131   1.855  22.836  1.00  0.00     0.205 HD
HETATM    5  N   UNL     1       8.881   1.337  24.610  1.00  0.00    -0.270 N 
ATOM      6  HN  UNL     1       9.067   2.301  24.886  1.00  0.00     0.189 HD
HETATM    7  N   UNL     1       8.915  -1.121  23.640  1.00  0.00    -0.129 N 
ATOM      8  HN  UNL     1       9.182  -2.002  23.201  1.00  0.00     0.205 HD
HETATM    9  N   UNL     1       9.146  -0.857  24.922  1.00  0.00    -0.270 N 
ATOM     10  HN  UNL     1       9.365  -1.637  25.542  1.00  0.00     0.189 HD
ENDROOT
BRANCH   2  11
HETATM   11  N   UNL     1       7.522  -0.300  21.823  1.00  0.00    -0.155 N 
HETATM   12  C   UNL     1       7.775  -0.695  20.538  1.00  0.00     0.267 C 
HETATM   13  O   UNL     1       7.169  -0.229  19.611  1.00  0.00    -0.270 OA
HETATM   14  H   UNL     1       6.584   0.105  21.891  1.00  0.00     0.187 HD
BRANCH  12  15
HETATM   15  C   UNL     1       8.815  -1.787  20.470  1.00  0.00     0.240 C 
HETATM   16  C   UNL     1       8.716  -2.569  19.121  1.00  0.00     0.212 C 
HETATM   17  O   UNL     1       8.779  -3.889  19.539  1.00  0.00    -0.364 OA
HETATM   18  C   UNL     1       9.136  -3.895  20.904  1.00  0.00     0.339 C 
HETATM   19  O   UNL     1       8.526  -2.757  21.467  1.00  0.00    -0.350 OA
ENDBRANCH  12  15
ENDBRANCH   2  11
BRANCH   1  20
HETATM   20  C   UNL     1       9.309   0.728  26.880  1.00  0.00     0.041 C 
HETATM   21  C   UNL     1       9.369   0.125  27.929  1.00  0.00     0.015 C 
ENDBRANCH   1  20
TORSDOF 3
