stable:False satoms:19 tatoms:24 sratio:0.7916666666666666
  -OEChem-07092417293D

 24 25  0     1  0  0  0  0  0999 V2000
    7.7892   -2.3862   18.5702 H   0  0  0  0  0  0  0  0  0  0  0  0
    9.5540   -2.2826   18.4733 H   0  0  0  0  0  0  0  0  0  0  0  0
    9.1082    0.3641   25.4415 C   0  0  0  0  0  0  0  0  0  0  0  0
   10.2394   -3.8429   21.0185 H   0  0  0  0  0  0  0  0  0  0  0  0
    8.3043   -0.1368   22.9734 C   0  0  3  0  0  0  0  0  0  0  0  0
    8.7161   -2.5691   19.1208 C   0  0  0  0  0  0  0  0  0  0  0  0
    9.4759    0.1395   28.9590 H   0  0  0  0  0  0  0  0  0  0  0  0
    8.7789   -3.8891   19.5390 O   0  0  0  0  0  0  0  0  0  0  0  0
    8.4185    1.0780   23.4315 N   0  0  0  0  0  0  0  0  0  0  0  0
    7.7753   -0.6948   20.5380 C   0  0  0  0  0  0  0  0  0  0  0  0
    8.8809    1.3372   24.6099 N   0  0  0  0  0  0  0  0  0  0  0  0
    9.3086    0.7281   26.8802 C   0  0  0  0  0  0  0  0  0  0  0  0
    9.4481    1.8025   27.0497 H   0  0  0  0  0  0  0  0  0  0  0  0
    6.5838    0.1049   21.8908 H   0  0  0  0  0  0  0  0  0  0  0  0
    8.9151   -1.1210   23.6404 N   0  0  0  0  0  0  0  0  0  0  0  0
    9.3691    0.1251   27.9293 C   0  5  0  0  0  0  0  0  0  0  0  0
    8.7633   -4.8016   21.4043 H   0  0  0  0  0  0  0  0  0  0  0  0
    8.5257   -2.7575   21.4669 O   0  0  0  0  0  0  0  0  0  0  0  0
    9.8411   -1.4202   20.6313 H   0  0  0  0  0  0  0  0  0  0  0  0
    7.1693   -0.2292   19.6106 O   0  0  0  0  0  0  0  0  0  0  0  0
    9.1459   -0.8565   24.9218 N   0  0  0  0  0  0  0  0  0  0  0  0
    9.1364   -3.8951   20.9042 C   0  0  0  0  0  0  0  0  0  0  0  0
    7.5220   -0.2997   21.8225 N   0  0  0  0  0  0  0  0  0  0  0  0
    8.8151   -1.7874   20.4697 C   0  0  1  0  0  0  0  0  0  0  0  0
  2  6  1  0  0  0  0
  1  6  1  0  0  0  0
  6  8  1  0  0  0  0
  6 24  1  0  0  0  0
  8 22  1  0  0  0  0
 10 20  2  0  0  0  0
 10 24  1  0  0  0  0
 19 24  1  0  0  0  0
 18 24  1  0  0  0  0
 10 23  1  0  0  0  0
  4 22  1  0  0  0  0
 17 22  1  0  0  0  0
 18 22  1  0  0  0  0
 14 23  1  0  0  0  0
  5 23  1  0  0  0  0
  5  9  1  0  0  0  0
  5 15  1  0  0  0  0
  9 11  2  0  0  0  0
 15 21  1  0  0  0  0
  3 11  1  0  0  0  0
  3 21  2  0  0  0  0
  3 12  1  0  0  0  0
 12 13  1  0  0  0  0
 12 16  2  0  0  0  0
  7 16  1  0  0  0  0
M  CHG  1  16  -1
M  END
> <Shapegauss>
-95.710663

$$$$
