
 OpenBabel07202414153D

 42 45  0  0  1  0  0  0  0  0999 V2000
    0.9746    0.0153   -0.0223 C   0  0  0  0  0  0  0  0  0  0  0  0
    2.4945   -0.0378   -0.1748 C   0  0  2  0  0  0  0  0  0  0  0  0
    3.0782   -1.0467    0.8121 C   0  0  0  0  0  0  0  0  0  0  0  0
    4.4799   -1.2261    0.6179 O   0  0  0  0  0  0  0  0  0  0  0  0
    5.1989   -0.0600    0.6184 C   0  0  0  0  0  0  0  0  0  0  0  0
    6.5556   -0.1988    0.9352 C   0  0  0  0  0  0  0  0  0  0  0  0
    7.3813    0.9210    0.9700 C   0  0  0  0  0  0  0  0  0  0  0  0
    6.8504    2.1741    0.6722 C   0  0  0  0  0  0  0  0  0  0  0  0
    5.4972    2.3168    0.3519 C   0  0  0  0  0  0  0  0  0  0  0  0
    4.6497    1.1906    0.3194 C   0  0  0  0  0  0  0  0  0  0  0  0
    3.1500    1.3287    0.0957 C   0  0  1  0  0  0  0  0  0  0  0  0
    2.7518    2.3754   -0.9566 C   0  0  0  0  0  0  0  0  0  0  0  0
    2.1790    3.4002   -0.5921 O   0  0  0  0  0  0  0  0  0  0  0  0
    3.0874    2.0707   -2.2629 N   0  0  0  0  0  0  0  0  0  0  0  0
    2.9660    2.9390   -3.3874 C   0  0  0  0  0  0  0  0  0  0  0  0
    2.3534    4.1933   -3.3209 C   0  0  0  0  0  0  0  0  0  0  0  0
    2.4201    5.1362   -4.2899 N   0  0  0  0  0  0  0  0  0  0  0  0
    3.1413    4.8240   -5.3842 C   0  0  0  0  0  0  0  0  0  0  0  0
    3.7181    3.5769   -5.6161 C   0  0  0  0  0  0  0  0  0  0  0  0
    3.5743    2.5794   -4.6239 C   0  0  0  0  0  0  0  0  0  0  0  0
    4.0499    1.2822   -4.9444 C   0  0  0  0  0  0  0  0  0  0  0  0
    4.6989    1.0164   -6.1541 C   0  0  0  0  0  0  0  0  0  0  0  0
    4.9176    2.0386   -7.0672 C   0  0  0  0  0  0  0  0  0  0  0  0
    4.4258    3.3146   -6.8030 C   0  0  0  0  0  0  0  0  0  0  0  0
    7.8688    3.5596    0.7135 Cl  0  0  0  0  0  0  0  0  0  0  0  0
    0.5327   -0.9545   -0.2734 H   0  0  0  0  0  0  0  0  0  0  0  0
    0.5302    0.7639   -0.6850 H   0  0  0  0  0  0  0  0  0  0  0  0
    0.6876    0.2577    1.0069 H   0  0  0  0  0  0  0  0  0  0  0  0
    2.7363   -0.3722   -1.1923 H   0  0  0  0  0  0  0  0  0  0  0  0
    2.6131   -2.0288    0.6617 H   0  0  0  0  0  0  0  0  0  0  0  0
    2.8903   -0.7618    1.8549 H   0  0  0  0  0  0  0  0  0  0  0  0
    6.9575   -1.1774    1.1819 H   0  0  0  0  0  0  0  0  0  0  0  0
    8.4287    0.8139    1.2410 H   0  0  0  0  0  0  0  0  0  0  0  0
    5.1039    3.3112    0.1479 H   0  0  0  0  0  0  0  0  0  0  0  0
    2.7540    1.7031    1.0519 H   0  0  0  0  0  0  0  0  0  0  0  0
    3.6701    1.2538   -2.3959 H   0  0  0  0  0  0  0  0  0  0  0  0
    1.7752    4.5161   -2.4624 H   0  0  0  0  0  0  0  0  0  0  0  0
    3.2256    5.6306   -6.1079 H   0  0  0  0  0  0  0  0  0  0  0  0
    3.8799    0.4434   -4.2761 H   0  0  0  0  0  0  0  0  0  0  0  0
    5.0336    0.0062   -6.3802 H   0  0  0  0  0  0  0  0  0  0  0  0
    5.4514    1.8417   -7.9933 H   0  0  0  0  0  0  0  0  0  0  0  0
    4.5881    4.1030   -7.5347 H   0  0  0  0  0  0  0  0  0  0  0  0
  1  2  1  0  0  0  0
  1 26  1  0  0  0  0
  1 27  1  0  0  0  0
  1 28  1  0  0  0  0
  2  3  1  0  0  0  0
  2 11  1  0  0  0  0
  2 29  1  6  0  0  0
  3  4  1  0  0  0  0
  3 30  1  0  0  0  0
  3 31  1  0  0  0  0
  4  5  1  0  0  0  0
  5  6  1  0  0  0  0
  5 10  2  0  0  0  0
  6  7  2  0  0  0  0
  6 32  1  0  0  0  0
  7  8  1  0  0  0  0
  7 33  1  0  0  0  0
  8  9  2  0  0  0  0
  8 25  1  0  0  0  0
  9 10  1  0  0  0  0
  9 34  1  0  0  0  0
 10 11  1  0  0  0  0
 11 12  1  0  0  0  0
 11 35  1  1  0  0  0
 12 13  2  0  0  0  0
 12 14  1  0  0  0  0
 14 15  1  0  0  0  0
 14 36  1  0  0  0  0
 15 16  1  0  0  0  0
 15 20  2  0  0  0  0
 16 17  2  0  0  0  0
 16 37  1  0  0  0  0
 17 18  1  0  0  0  0
 18 19  2  0  0  0  0
 18 38  1  0  0  0  0
 19 20  1  0  0  0  0
 19 24  1  0  0  0  0
 20 21  1  0  0  0  0
 21 22  2  0  0  0  0
 21 39  1  0  0  0  0
 22 23  1  0  0  0  0
 22 40  1  0  0  0  0
 23 24  2  0  0  0  0
 23 41  1  0  0  0  0
 24 42  1  0  0  0  0
M  END
$$$$
