MODEL 1
REMARK VINA RESULT:    -7.022      0.000      0.000
REMARK INTER + INTRA:          -7.022
REMARK INTER:                  -7.022
REMARK INTRA:                   0.000
REMARK UNBOUND:                 0.000
REMARK  0 active torsions:
REMARK  status: ('A' for Active; 'I' for Inactive)
ROOT
HETATM    1  N   UNL     1      11.948  14.578   4.837  1.00  0.00    -0.384 N 
HETATM    2  C   UNL     1       8.732  17.993   3.884  1.00  0.00     0.001 C 
HETATM    3  C   UNL     1       8.872  17.582   2.568  1.00  0.00     0.000 C 
HETATM    4  C   UNL     1      10.857  15.053   4.228  1.00  0.00     0.128 C 
HETATM    5  N   UNL     1       8.809  13.294   2.952  1.00  0.00    -0.294 N 
ATOM      6  HN  UNL     1       9.077  12.313   3.043  1.00  0.00     0.187 HD
HETATM    7  O   UNL     1       5.538  14.450   3.562  1.00  0.00    -0.287 OA
HETATM    8  C   UNL     1      10.025  16.062   5.025  1.00  0.00     0.046 C 
HETATM    9  N   UNL     1      10.687  14.591   3.039  1.00  0.00    -0.271 N 
ATOM     10  HN  UNL     1      11.438  14.855   2.402  1.00  0.00     0.190 HD
HETATM   11  C   UNL     1       8.455  16.317   2.184  1.00  0.00     0.004 C 
HETATM   12  C   UNL     1       7.240  15.793   2.627  1.00  0.00     0.056 C 
HETATM   13  O   UNL     1      10.259  15.477   7.329  1.00  0.00    -0.301 OA
HETATM   14  C   UNL     1       7.622  13.374   3.370  1.00  0.00     0.163 C 
HETATM   15  C   UNL     1      10.200  15.764   6.242  1.00  0.00     0.273 C 
HETATM   16  C   UNL     1       6.705  14.525   3.227  1.00  0.00     0.188 C 
HETATM   17  C   UNL     1       9.191  17.230   4.958  1.00  0.00     0.018 C 
HETATM   18  N   UNL     1       9.791  13.879   2.479  1.00  0.00    -0.241 N 
ATOM     19  HN  UNL     1       9.903  13.773   1.470  1.00  0.00     0.208 HD
HETATM   20  H   UNL     1      12.314  13.718   4.477  1.00  0.00     0.157 HD
HETATM   21  H   UNL     1      12.610  15.238   5.238  1.00  0.00     0.157 HD
ENDROOT
TORSDOF 0
ENDMDL
MODEL 2
REMARK VINA RESULT:    -6.508      2.315      3.918
REMARK INTER + INTRA:          -6.508
REMARK INTER:                  -6.508
REMARK INTRA:                   0.000
REMARK UNBOUND:                 0.000
REMARK  0 active torsions:
REMARK  status: ('A' for Active; 'I' for Inactive)
ROOT
HETATM    1  N   UNL     1       9.729  17.262   0.045  1.00  0.00    -0.384 N 
HETATM    2  C   UNL     1       6.785  17.117   3.817  1.00  0.00     0.001 C 
HETATM    3  C   UNL     1       6.724  15.757   3.559  1.00  0.00     0.000 C 
HETATM    4  C   UNL     1       9.277  16.732   1.187  1.00  0.00     0.128 C 
HETATM    5  N   UNL     1      10.857  14.796   2.822  1.00  0.00    -0.294 N 
ATOM      6  HN  UNL     1      11.754  14.605   2.376  1.00  0.00     0.187 HD
HETATM    7  O   UNL     1      10.526  15.432   6.271  1.00  0.00    -0.287 OA
HETATM    8  C   UNL     1       8.731  17.721   2.220  1.00  0.00     0.046 C 
HETATM    9  N   UNL     1       9.357  15.448   1.227  1.00  0.00    -0.271 N 
ATOM     10  HN  UNL     1       8.780  14.994   0.519  1.00  0.00     0.190 HD
HETATM   11  C   UNL     1       7.852  14.967   3.717  1.00  0.00     0.004 C 
HETATM   12  C   UNL     1       8.688  15.114   4.824  1.00  0.00     0.056 C 
HETATM   13  O   UNL     1       9.972  19.746   1.956  1.00  0.00    -0.301 OA
HETATM   14  C   UNL     1      11.116  15.109   4.016  1.00  0.00     0.163 C 
HETATM   15  C   UNL     1       9.367  18.799   2.032  1.00  0.00     0.273 C 
HETATM   16  C   UNL     1      10.152  15.243   5.129  1.00  0.00     0.188 C 
HETATM   17  C   UNL     1       7.761  17.942   3.258  1.00  0.00     0.018 C 
HETATM   18  N   UNL     1       9.994  14.618   1.953  1.00  0.00    -0.241 N 
ATOM     19  HN  UNL     1       9.751  13.640   1.790  1.00  0.00     0.208 HD
HETATM   20  H   UNL     1      10.354  16.690  -0.488  1.00  0.00     0.157 HD
HETATM   21  H   UNL     1       9.130  17.905  -0.465  1.00  0.00     0.157 HD
ENDROOT
TORSDOF 0
ENDMDL
MODEL 3
REMARK VINA RESULT:    -6.375     24.233     25.772
REMARK INTER + INTRA:          -6.375
REMARK INTER:                  -6.375
REMARK INTRA:                   0.000
REMARK UNBOUND:                 0.000
REMARK  0 active torsions:
REMARK  status: ('A' for Active; 'I' for Inactive)
ROOT
HETATM    1  N   UNL     1       8.249  -3.068  25.624  1.00  0.00    -0.384 N 
HETATM    2  C   UNL     1      11.660   0.125  24.582  1.00  0.00     0.001 C 
HETATM    3  C   UNL     1      12.005  -0.761  23.573  1.00  0.00     0.000 C 
HETATM    4  C   UNL     1       8.976  -2.332  24.777  1.00  0.00     0.128 C 
HETATM    5  N   UNL     1       8.159  -1.819  21.951  1.00  0.00    -0.294 N 
ATOM      6  HN  UNL     1       7.278  -2.291  21.746  1.00  0.00     0.187 HD
HETATM    7  O   UNL     1       8.828   1.502  20.985  1.00  0.00    -0.287 OA
HETATM    8  C   UNL     1       9.415  -0.955  25.285  1.00  0.00     0.046 C 
HETATM    9  N   UNL     1       9.211  -2.917  23.656  1.00  0.00    -0.271 N 
ATOM     10  HN  UNL     1       9.770  -3.764  23.762  1.00  0.00     0.190 HD
HETATM   11  C   UNL     1      11.134  -0.992  22.520  1.00  0.00     0.004 C 
HETATM   12  C   UNL     1      10.458   0.059  21.899  1.00  0.00     0.056 C 
HETATM   13  O   UNL     1       7.702  -0.190  26.765  1.00  0.00    -0.301 OA
HETATM   14  C   UNL     1       8.010  -0.620  21.590  1.00  0.00     0.163 C 
HETATM   15  C   UNL     1       8.519  -0.590  26.101  1.00  0.00     0.273 C 
HETATM   16  C   UNL     1       9.065   0.407  21.458  1.00  0.00     0.188 C 
HETATM   17  C   UNL     1      10.444   0.047  25.262  1.00  0.00     0.018 C 
HETATM   18  N   UNL     1       8.904  -2.677  22.443  1.00  0.00    -0.241 N 
ATOM     19  HN  UNL     1       9.346  -3.296  21.763  1.00  0.00     0.208 HD
HETATM   20  H   UNL     1       7.707  -3.803  25.215  1.00  0.00     0.157 HD
HETATM   21  H   UNL     1       8.596  -3.210  26.569  1.00  0.00     0.157 HD
ENDROOT
TORSDOF 0
ENDMDL
MODEL 4
REMARK VINA RESULT:    -6.175     23.355     24.934
REMARK INTER + INTRA:          -6.175
REMARK INTER:                  -6.175
REMARK INTRA:                   0.000
REMARK UNBOUND:                 0.000
REMARK  0 active torsions:
REMARK  status: ('A' for Active; 'I' for Inactive)
ROOT
HETATM    1  N   UNL     1       8.842  -3.335  23.285  1.00  0.00    -0.384 N 
HETATM    2  C   UNL     1      10.923   0.632  24.971  1.00  0.00     0.001 C 
HETATM    3  C   UNL     1      11.605   0.636  23.765  1.00  0.00     0.000 C 
HETATM    4  C   UNL     1       9.292  -2.082  23.168  1.00  0.00     0.128 C 
HETATM    5  N   UNL     1       8.468  -0.256  20.954  1.00  0.00    -0.294 N 
ATOM      6  HN  UNL     1       7.823  -0.734  20.322  1.00  0.00     0.187 HD
HETATM    7  O   UNL     1       7.941   3.031  22.105  1.00  0.00    -0.287 OA
HETATM    8  C   UNL     1       9.186  -1.207  24.420  1.00  0.00     0.046 C 
HETATM    9  N   UNL     1       9.770  -1.812  22.004  1.00  0.00    -0.271 N 
ATOM     10  HN  UNL     1      10.590  -2.372  21.774  1.00  0.00     0.190 HD
HETATM   11  C   UNL     1      10.920   0.842  22.578  1.00  0.00     0.004 C 
HETATM   12  C   UNL     1       9.939   1.828  22.471  1.00  0.00     0.056 C 
HETATM   13  O   UNL     1       7.252  -1.945  25.612  1.00  0.00    -0.301 OA
HETATM   14  C   UNL     1       7.914   0.833  21.265  1.00  0.00     0.163 C 
HETATM   15  C   UNL     1       8.185  -1.644  25.060  1.00  0.00     0.273 C 
HETATM   16  C   UNL     1       8.535   1.979  21.962  1.00  0.00     0.188 C 
HETATM   17  C   UNL     1       9.788  -0.150  25.186  1.00  0.00     0.018 C 
HETATM   18  N   UNL     1       9.448  -1.001  21.075  1.00  0.00    -0.241 N 
ATOM     19  HN  UNL     1      10.112  -0.959  20.301  1.00  0.00     0.208 HD
HETATM   20  H   UNL     1       8.618  -3.805  22.430  1.00  0.00     0.157 HD
HETATM   21  H   UNL     1       9.177  -3.904  24.059  1.00  0.00     0.157 HD
ENDROOT
TORSDOF 0
ENDMDL
MODEL 5
REMARK VINA RESULT:    -6.161     24.384     25.645
REMARK INTER + INTRA:          -6.161
REMARK INTER:                  -6.161
REMARK INTRA:                   0.000
REMARK UNBOUND:                 0.000
REMARK  0 active torsions:
REMARK  status: ('A' for Active; 'I' for Inactive)
ROOT
HETATM    1  N   UNL     1      25.067   3.193  18.336  1.00  0.00    -0.384 N 
HETATM    2  C   UNL     1      24.243  -1.419  19.317  1.00  0.00     0.001 C 
HETATM    3  C   UNL     1      22.975  -1.169  18.816  1.00  0.00     0.000 C 
HETATM    4  C   UNL     1      24.584   1.980  18.049  1.00  0.00     0.128 C 
HETATM    5  N   UNL     1      23.844   1.134  15.283  1.00  0.00    -0.294 N 
ATOM      6  HN  UNL     1      24.002   1.898  14.625  1.00  0.00     0.187 HD
HETATM    7  O   UNL     1      24.815  -2.189  14.634  1.00  0.00    -0.287 OA
HETATM    8  C   UNL     1      25.381   0.791  18.593  1.00  0.00     0.046 C 
HETATM    9  N   UNL     1      23.495   2.007  17.365  1.00  0.00    -0.271 N 
ATOM     10  HN  UNL     1      22.724   2.448  17.866  1.00  0.00     0.190 HD
HETATM   11  C   UNL     1      22.805  -0.858  17.476  1.00  0.00     0.004 C 
HETATM   12  C   UNL     1      23.485  -1.559  16.480  1.00  0.00     0.056 C 
HETATM   13  O   UNL     1      27.673   1.462  18.639  1.00  0.00    -0.301 OA
HETATM   14  C   UNL     1      24.428   0.126  14.800  1.00  0.00     0.163 C 
HETATM   15  C   UNL     1      26.583   1.182  18.654  1.00  0.00     0.273 C 
HETATM   16  C   UNL     1      24.299  -1.276  15.250  1.00  0.00     0.188 C 
HETATM   17  C   UNL     1      25.313  -0.547  19.115  1.00  0.00     0.018 C 
HETATM   18  N   UNL     1      23.163   1.606  16.202  1.00  0.00    -0.241 N 
ATOM     19  HN  UNL     1      22.167   1.687  15.994  1.00  0.00     0.208 HD
HETATM   20  H   UNL     1      24.755   3.941  17.749  1.00  0.00     0.157 HD
HETATM   21  H   UNL     1      25.286   3.415  19.304  1.00  0.00     0.157 HD
ENDROOT
TORSDOF 0
ENDMDL
MODEL 6
REMARK VINA RESULT:    -6.143      2.755      3.494
REMARK INTER + INTRA:          -6.143
REMARK INTER:                  -6.143
REMARK INTRA:                   0.000
REMARK UNBOUND:                 0.000
REMARK  0 active torsions:
REMARK  status: ('A' for Active; 'I' for Inactive)
ROOT
HETATM    1  N   UNL     1       9.485  15.095   0.835  1.00  0.00    -0.384 N 
HETATM    2  C   UNL     1       6.990  15.305   4.915  1.00  0.00     0.001 C 
HETATM    3  C   UNL     1       5.891  15.060   4.108  1.00  0.00     0.000 C 
HETATM    4  C   UNL     1       8.547  14.662   1.684  1.00  0.00     0.128 C 
HETATM    5  N   UNL     1       7.345  11.933   1.529  1.00  0.00    -0.294 N 
ATOM      6  HN  UNL     1       7.744  11.414   0.746  1.00  0.00     0.187 HD
HETATM    7  O   UNL     1       6.890  10.528   4.727  1.00  0.00    -0.287 OA
HETATM    8  C   UNL     1       8.850  14.843   3.174  1.00  0.00     0.046 C 
HETATM    9  N   UNL     1       7.510  14.171   1.100  1.00  0.00    -0.271 N 
ATOM     10  HN  UNL     1       7.011  14.859   0.537  1.00  0.00     0.190 HD
HETATM   11  C   UNL     1       5.763  13.845   3.453  1.00  0.00     0.004 C 
HETATM   12  C   UNL     1       6.044  12.642   4.102  1.00  0.00     0.056 C 
HETATM   13  O   UNL     1      11.219  14.662   3.420  1.00  0.00    -0.301 OA
HETATM   14  C   UNL     1       7.452  11.185   2.539  1.00  0.00     0.163 C 
HETATM   15  C   UNL     1      10.110  14.791   3.276  1.00  0.00     0.273 C 
HETATM   16  C   UNL     1       6.816  11.377   3.859  1.00  0.00     0.188 C 
HETATM   17  C   UNL     1       8.300  15.108   4.475  1.00  0.00     0.018 C 
HETATM   18  N   UNL     1       6.968  13.019   1.069  1.00  0.00    -0.241 N 
ATOM     19  HN  UNL     1       6.072  12.985   0.582  1.00  0.00     0.208 HD
HETATM   20  H   UNL     1       9.451  14.714  -0.090  1.00  0.00     0.157 HD
HETATM   21  H   UNL     1       9.839  16.042   0.941  1.00  0.00     0.157 HD
ENDROOT
TORSDOF 0
ENDMDL
MODEL 7
REMARK VINA RESULT:    -5.942     24.045     25.367
REMARK INTER + INTRA:          -5.942
REMARK INTER:                  -5.942
REMARK INTRA:                   0.000
REMARK UNBOUND:                 0.000
REMARK  0 active torsions:
REMARK  status: ('A' for Active; 'I' for Inactive)
ROOT
HETATM    1  N   UNL     1      12.678  -1.872  22.623  1.00  0.00    -0.384 N 
HETATM    2  C   UNL     1       9.926   2.034  22.907  1.00  0.00     0.001 C 
HETATM    3  C   UNL     1       9.084   1.350  22.046  1.00  0.00     0.000 C 
HETATM    4  C   UNL     1      11.503  -1.247  22.749  1.00  0.00     0.128 C 
HETATM    5  N   UNL     1       9.043  -2.595  23.772  1.00  0.00    -0.294 N 
ATOM      6  HN  UNL     1       9.239  -3.574  23.987  1.00  0.00     0.187 HD
HETATM    7  O   UNL     1       7.203  -0.492  25.917  1.00  0.00    -0.287 OA
HETATM    8  C   UNL     1      11.527   0.087  23.500  1.00  0.00     0.046 C 
HETATM    9  N   UNL     1      10.525  -1.870  22.192  1.00  0.00    -0.271 N 
ATOM     10  HN  UNL     1      10.633  -1.952  21.181  1.00  0.00     0.190 HD
HETATM   11  C   UNL     1       8.440   0.197  22.469  1.00  0.00     0.004 C 
HETATM   12  C   UNL     1       7.849   0.123  23.731  1.00  0.00     0.056 C 
HETATM   13  O   UNL     1      13.265  -0.072  25.132  1.00  0.00    -0.301 OA
HETATM   14  C   UNL     1       8.492  -2.113  24.798  1.00  0.00     0.163 C 
HETATM   15  C   UNL     1      12.482  -0.000  24.325  1.00  0.00     0.273 C 
HETATM   16  C   UNL     1       7.807  -0.807  24.909  1.00  0.00     0.188 C 
HETATM   17  C   UNL     1      10.956   1.402  23.605  1.00  0.00     0.018 C 
HETATM   18  N   UNL     1       9.451  -2.406  22.619  1.00  0.00    -0.241 N 
ATOM     19  HN  UNL     1       8.821  -2.735  21.887  1.00  0.00     0.208 HD
HETATM   20  H   UNL     1      12.636  -2.853  22.424  1.00  0.00     0.157 HD
HETATM   21  H   UNL     1      13.471  -1.352  22.255  1.00  0.00     0.157 HD
ENDROOT
TORSDOF 0
ENDMDL
MODEL 8
REMARK VINA RESULT:    -5.800     27.851     29.083
REMARK INTER + INTRA:          -5.800
REMARK INTER:                  -5.800
REMARK INTRA:                   0.000
REMARK UNBOUND:                 0.000
REMARK  0 active torsions:
REMARK  status: ('A' for Active; 'I' for Inactive)
ROOT
HETATM    1  N   UNL     1       7.997  -5.669  27.120  1.00  0.00    -0.384 N 
HETATM    2  C   UNL     1       4.441  -3.118  25.181  1.00  0.00     0.001 C 
HETATM    3  C   UNL     1       5.457  -2.365  24.616  1.00  0.00     0.000 C 
HETATM    4  C   UNL     1       7.404  -5.024  26.110  1.00  0.00     0.128 C 
HETATM    5  N   UNL     1       8.182  -5.408  23.253  1.00  0.00    -0.294 N 
ATOM      6  HN  UNL     1       8.951  -6.075  23.182  1.00  0.00     0.187 HD
HETATM    7  O   UNL     1       5.366  -5.497  21.138  1.00  0.00    -0.287 OA
HETATM    8  C   UNL     1       5.874  -5.077  26.082  1.00  0.00     0.046 C 
HETATM    9  N   UNL     1       8.230  -4.434  25.319  1.00  0.00    -0.271 N 
ATOM     10  HN  UNL     1       8.761  -3.697  25.781  1.00  0.00     0.190 HD
HETATM   11  C   UNL     1       6.301  -2.929  23.673  1.00  0.00     0.004 C 
HETATM   12  C   UNL     1       5.803  -3.737  22.650  1.00  0.00     0.056 C 
HETATM   13  O   UNL     1       5.241  -7.177  27.028  1.00  0.00    -0.301 OA
HETATM   14  C   UNL     1       7.294  -5.807  22.451  1.00  0.00     0.163 C 
HETATM   15  C   UNL     1       5.559  -6.174  26.629  1.00  0.00     0.273 C 
HETATM   16  C   UNL     1       6.094  -5.064  22.011  1.00  0.00     0.188 C 
HETATM   17  C   UNL     1       4.666  -4.372  25.750  1.00  0.00     0.018 C 
HETATM   18  N   UNL     1       8.531  -4.564  24.088  1.00  0.00    -0.241 N 
ATOM     19  HN  UNL     1       9.169  -3.852  23.730  1.00  0.00     0.208 HD
HETATM   20  H   UNL     1       8.961  -5.905  26.986  1.00  0.00     0.157 HD
HETATM   21  H   UNL     1       7.688  -5.478  28.070  1.00  0.00     0.157 HD
ENDROOT
TORSDOF 0
ENDMDL
MODEL 9
REMARK VINA RESULT:    -5.700      8.691     10.827
REMARK INTER + INTRA:          -5.700
REMARK INTER:                  -5.700
REMARK INTRA:                   0.000
REMARK UNBOUND:                 0.000
REMARK  0 active torsions:
REMARK  status: ('A' for Active; 'I' for Inactive)
ROOT
HETATM    1  N   UNL     1       6.314   7.680   5.245  1.00  0.00    -0.384 N 
HETATM    2  C   UNL     1       2.189   7.485   2.823  1.00  0.00     0.001 C 
HETATM    3  C   UNL     1       2.597   6.206   2.479  1.00  0.00     0.000 C 
HETATM    4  C   UNL     1       5.189   7.073   4.849  1.00  0.00     0.128 C 
HETATM    5  N   UNL     1       4.053   4.686   6.236  1.00  0.00    -0.294 N 
ATOM      6  HN  UNL     1       4.648   4.415   7.020  1.00  0.00     0.187 HD
HETATM    7  O   UNL     1       0.542   4.863   6.466  1.00  0.00    -0.287 OA
HETATM    8  C   UNL     1       3.975   7.981   4.631  1.00  0.00     0.046 C 
HETATM    9  N   UNL     1       5.316   5.803   4.694  1.00  0.00    -0.271 N 
ATOM     10  HN  UNL     1       5.979   5.558   3.959  1.00  0.00     0.190 HD
HETATM   11  C   UNL     1       2.705   5.224   3.452  1.00  0.00     0.004 C 
HETATM   12  C   UNL     1       1.726   5.069   4.433  1.00  0.00     0.056 C 
HETATM   13  O   UNL     1       4.178   9.786   6.181  1.00  0.00    -0.301 OA
HETATM   14  C   UNL     1       2.882   4.776   6.697  1.00  0.00     0.163 C 
HETATM   15  C   UNL     1       4.126   8.953   5.427  1.00  0.00     0.273 C 
HETATM   16  C   UNL     1       1.630   4.907   5.922  1.00  0.00     0.188 C 
HETATM   17  C   UNL     1       2.786   8.208   3.857  1.00  0.00     0.018 C 
HETATM   18  N   UNL     1       4.798   4.781   5.253  1.00  0.00    -0.241 N 
ATOM     19  HN  UNL     1       5.039   3.891   4.815  1.00  0.00     0.208 HD
HETATM   20  H   UNL     1       6.999   7.095   5.681  1.00  0.00     0.157 HD
HETATM   21  H   UNL     1       6.648   8.481   4.716  1.00  0.00     0.157 HD
ENDROOT
TORSDOF 0
ENDMDL
