stable:False satoms:6 tatoms:24 sratio:0.25
  -OEChem-07092417463D

 24 26  0     1  0  0  0  0  0999 V2000
    6.7336   -4.8283   26.4445 C   0  0  0  0  0  0  0  0  0  0  0  0
    8.1787   -4.3459   26.1176 S   0  0  0  0  0  0  0  0  0  0  0  0
    9.0470   -5.4915   25.9875 O   0  0  0  0  0  0  0  0  0  0  0  0
    8.6537   -3.4463   27.1332 O   0  0  0  0  0  0  0  0  0  0  0  0
    8.1288   -3.5665   24.6442 N   0  0  0  0  0  0  0  0  0  0  0  0
    8.9263   -2.8942   24.1272 C   0  0  0  0  0  0  0  0  0  0  0  0
    9.4185   -1.9269   23.4731 C   0  0  0  0  0  0  0  0  0  0  0  0
   10.4055   -1.1424   23.1891 C   0  0  1  0  0  0  0  0  0  0  0  0
   11.0710    0.0571   24.2733 C   0  0  0  0  0  0  0  0  0  0  0  0
   11.9908    0.3075   24.2254 C   0  0  0  0  0  0  0  0  0  0  0  0
   13.1663   -0.2641   23.3837 C   0  0  0  0  0  0  0  0  0  0  0  0
   12.7434   -1.2379   22.7123 C   0  0  0  0  0  0  0  0  0  0  0  0
   11.7124   -1.7295   22.5960 C   0  0  0  0  0  0  0  0  0  0  0  0
    9.6539   -0.6347   22.3825 C   0  0  3  0  0  0  0  0  0  0  0  0
    9.0297    0.0779   21.4021 C   0  0  0  0  0  0  0  0  0  0  0  0
    9.5308    1.0631   21.0636 O   0  0  0  0  0  0  0  0  0  0  0  0
    7.9337   -0.5727   21.0495 N   0  0  0  0  0  0  0  0  0  0  0  0
    7.2575   -0.1003   20.1444 C   0  0  0  0  0  0  0  0  0  0  0  0
    7.1761    0.0175   18.8874 C   0  0  0  0  0  0  0  0  0  0  0  0
    6.7300    0.3512   17.7366 N   0  0  0  0  0  0  0  0  0  0  0  0
    5.6856    0.8492   18.2672 C   0  0  0  0  0  0  0  0  0  0  0  0
    5.2708    0.9654   19.4116 C   0  0  0  0  0  0  0  0  0  0  0  0
    5.8062    0.5645   20.5712 C   0  0  0  0  0  0  0  0  0  0  0  0
    5.3338    0.6377   22.0736 Cl  0  0  0  0  0  0  0  0  0  0  0  0
 20 21  2  0  0  0  0
 19 20  1  0  0  0  0
 21 22  1  0  0  0  0
 18 19  2  0  0  0  0
 22 23  2  0  0  0  0
 18 23  1  0  0  0  0
 17 18  1  0  0  0  0
 23 24  1  0  0  0  0
 15 17  1  0  0  0  0
 15 16  2  0  0  0  0
 14 15  1  0  0  0  0
  8 14  1  0  0  0  0
  7 14  1  0  0  0  0
 12 13  1  0  0  0  0
  8 13  1  0  0  0  0
 11 12  2  0  0  0  0
  7  8  1  0  0  0  0
  8  9  1  0  0  0  0
 10 11  1  0  0  0  0
  6  7  2  0  0  0  0
  5  6  1  0  0  0  0
  9 10  2  0  0  0  0
  2  5  1  0  0  0  0
  2  3  2  0  0  0  0
  1  2  1  0  0  0  0
  2  4  2  0  0  0  0
M  END
> <Shapegauss>
-288.123993

$$$$
