stable:False satoms:6 tatoms:24 sratio:0.25
  -OEChem-08062413033D

 40 42  0     1  0  0  0  0  0999 V2000
    5.8620   -5.1038   25.9064 C   0  0  0  0  0  0  0  0  0  0  0  0
    7.3405   -4.6296   25.7762 S   0  0  0  0  0  0  0  0  0  0  0  0
    8.2046   -5.7812   25.6746 O   0  0  0  0  0  0  0  0  0  0  0  0
    7.7066   -3.8019   26.8930 O   0  0  0  0  0  0  0  0  0  0  0  0
    7.4686   -3.7619   24.3578 N   0  0  0  0  0  0  0  0  0  0  0  0
    8.3277   -3.0746   23.9774 C   0  0  0  0  0  0  0  0  0  0  0  0
    8.9027   -2.0789   23.4447 C   0  0  0  0  0  0  0  0  0  0  0  0
    9.9248   -1.2972   23.3238 C   0  0  1  0  0  0  0  0  0  0  0  0
   10.4757   -0.1779   24.5489 C   0  0  0  0  0  0  0  0  0  0  0  0
   11.3978    0.0577   24.6213 C   0  0  0  0  0  0  0  0  0  0  0  0
   12.6552   -0.4838   23.8846 C   0  0  0  0  0  0  0  0  0  0  0  0
   12.3006   -1.4073   23.1104 C   0  0  0  0  0  0  0  0  0  0  0  0
   11.2840   -1.8717   22.8476 C   0  0  0  0  0  0  0  0  0  0  0  0
    9.2763   -0.7279   22.4702 C   0  0  3  0  0  0  0  0  0  0  0  0
    8.7767    0.0541   21.4714 C   0  0  0  0  0  0  0  0  0  0  0  0
    9.3247    1.0484   21.2538 O   0  0  0  0  0  0  0  0  0  0  0  0
    7.7208   -0.5535   20.9570 N   0  0  0  0  0  0  0  0  0  0  0  0
    7.1581   -0.0149   20.0121 C   0  0  0  0  0  0  0  0  0  0  0  0
    7.2224    0.1801   18.7638 C   0  0  0  0  0  0  0  0  0  0  0  0
    6.9148    0.5908   17.5927 N   0  0  0  0  0  0  0  0  0  0  0  0
    5.8224    1.0753   18.0313 C   0  0  0  0  0  0  0  0  0  0  0  0
    5.2808    1.1299   19.1262 C   0  0  0  0  0  0  0  0  0  0  0  0
    5.6753    0.6499   20.3119 C   0  0  0  0  0  0  0  0  0  0  0  0
    5.0350    0.6411   21.7526 Cl  0  0  0  0  0  0  0  0  0  0  0  0
    5.7421   -5.6815   26.8348 H   0  0  0  0  0  0  0  0  0  0  0  0
    5.1969   -4.2280   25.9312 H   0  0  0  0  0  0  0  0  0  0  0  0
    5.6028   -5.7367   25.0448 H   0  0  0  0  0  0  0  0  0  0  0  0
    6.6639   -3.1681   24.3612 H   0  0  0  0  0  0  0  0  0  0  0  0
    9.1867   -3.6649   24.2603 H   0  0  0  0  0  0  0  0  0  0  0  0
    9.7615    0.2536   25.2344 H   0  0  0  0  0  0  0  0  0  0  0  0
   11.6036    0.8366   25.3406 H   0  0  0  0  0  0  0  0  0  0  0  0
   13.6655   -0.1256   24.0165 H   0  0  0  0  0  0  0  0  0  0  0  0
   13.1258   -1.8596   22.5804 H   0  0  0  0  0  0  0  0  0  0  0  0
   11.2355   -1.8833   21.7487 H   0  0  0  0  0  0  0  0  0  0  0  0
   11.3207   -2.9047   23.2239 H   0  0  0  0  0  0  0  0  0  0  0  0
    8.8497   -0.0530   23.2269 H   0  0  0  0  0  0  0  0  0  0  0  0
    7.3931   -1.4229   21.3269 H   0  0  0  0  0  0  0  0  0  0  0  0
    8.1391   -0.3458   18.5410 H   0  0  0  0  0  0  0  0  0  0  0  0
    5.2380    1.5480   17.2558 H   0  0  0  0  0  0  0  0  0  0  0  0
    4.3332    1.6479   19.1386 H   0  0  0  0  0  0  0  0  0  0  0  0
 20 21  2  0  0  0  0
 19 20  1  0  0  0  0
 21 22  1  0  0  0  0
 18 19  2  0  0  0  0
 22 23  2  0  0  0  0
 18 23  1  0  0  0  0
 17 18  1  0  0  0  0
 23 24  1  0  0  0  0
 15 17  1  0  0  0  0
 15 16  2  0  0  0  0
 14 15  1  0  0  0  0
  8 14  1  0  0  0  0
  7 14  1  0  0  0  0
 12 13  1  0  0  0  0
  8 13  1  0  0  0  0
 11 12  2  0  0  0  0
  7  8  1  0  0  0  0
  8  9  1  0  0  0  0
 10 11  1  0  0  0  0
  6  7  2  0  0  0  0
  5  6  1  0  0  0  0
  9 10  2  0  0  0  0
  2  5  1  0  0  0  0
  2  3  2  0  0  0  0
  1  2  1  0  0  0  0
  2  4  2  0  0  0  0
  1 25  1  0  0  0  0
  1 26  1  0  0  0  0
  1 27  1  0  0  0  0
  5 28  1  0  0  0  0
  6 29  1  0  0  0  0
  9 30  1  0  0  0  0
 10 31  1  0  0  0  0
 11 32  1  0  0  0  0
 12 33  1  0  0  0  0
 13 34  1  0  0  0  0
 13 35  1  0  0  0  0
 14 36  1  0  0  0  0
 17 37  1  0  0  0  0
 19 38  1  0  0  0  0
 21 39  1  0  0  0  0
 22 40  1  0  0  0  0
M  END
> <Chemgauss4>
-12.621355

$$$$
