stable:False satoms:6 tatoms:24 sratio:0.25
  -OEChem-08062413033D

 40 42  0     1  0  0  0  0  0999 V2000
   -6.1483   -5.2498  -25.9561 C   0  0  0  0  0  0  0  0  0  0  0  0
   -7.6269   -4.7755  -25.8258 S   0  0  0  0  0  0  0  0  0  0  0  0
   -8.4910   -5.9271  -25.7243 O   0  0  0  0  0  0  0  0  0  0  0  0
   -7.9930   -3.9478  -26.9427 O   0  0  0  0  0  0  0  0  0  0  0  0
   -7.7549   -3.9078  -24.4075 N   0  0  0  0  0  0  0  0  0  0  0  0
   -8.6141   -3.2205  -24.0271 C   0  0  0  0  0  0  0  0  0  0  0  0
   -9.1891   -2.2248  -23.4944 C   0  0  0  0  0  0  0  0  0  0  0  0
  -10.2111   -1.4431  -23.3735 C   0  0  1  0  0  0  0  0  0  0  0  0
  -10.7621   -0.3238  -24.5986 C   0  0  0  0  0  0  0  0  0  0  0  0
  -11.6842   -0.0882  -24.6710 C   0  0  0  0  0  0  0  0  0  0  0  0
  -12.9416   -0.6297  -23.9343 C   0  0  0  0  0  0  0  0  0  0  0  0
  -12.5870   -1.5532  -23.1601 C   0  0  0  0  0  0  0  0  0  0  0  0
  -11.5704   -2.0176  -22.8972 C   0  0  0  0  0  0  0  0  0  0  0  0
   -9.5627   -0.8738  -22.5199 C   0  0  3  0  0  0  0  0  0  0  0  0
   -9.0631   -0.0918  -21.5211 C   0  0  0  0  0  0  0  0  0  0  0  0
   -9.6110    0.9025  -21.3035 O   0  0  0  0  0  0  0  0  0  0  0  0
   -8.0072   -0.6994  -21.0067 N   0  0  0  0  0  0  0  0  0  0  0  0
   -7.4445   -0.1608  -20.0618 C   0  0  0  0  0  0  0  0  0  0  0  0
   -7.5088    0.0342  -18.8135 C   0  0  0  0  0  0  0  0  0  0  0  0
   -7.2012    0.4449  -17.6424 N   0  0  0  0  0  0  0  0  0  0  0  0
   -6.1088    0.9294  -18.0809 C   0  0  0  0  0  0  0  0  0  0  0  0
   -5.5672    0.9840  -19.1759 C   0  0  0  0  0  0  0  0  0  0  0  0
   -5.9617    0.5040  -20.3616 C   0  0  0  0  0  0  0  0  0  0  0  0
   -5.3214    0.4951  -21.8023 Cl  0  0  0  0  0  0  0  0  0  0  0  0
   -6.0284   -5.8274  -26.8845 H   0  0  0  0  0  0  0  0  0  0  0  0
   -5.4833   -4.3739  -25.9809 H   0  0  0  0  0  0  0  0  0  0  0  0
   -5.8892   -5.8826  -25.0945 H   0  0  0  0  0  0  0  0  0  0  0  0
   -6.9503   -3.3140  -24.4109 H   0  0  0  0  0  0  0  0  0  0  0  0
   -9.4731   -3.8108  -24.3100 H   0  0  0  0  0  0  0  0  0  0  0  0
  -10.0478    0.1077  -25.2841 H   0  0  0  0  0  0  0  0  0  0  0  0
  -11.8900    0.6907  -25.3903 H   0  0  0  0  0  0  0  0  0  0  0  0
  -13.9519   -0.2715  -24.0662 H   0  0  0  0  0  0  0  0  0  0  0  0
  -13.4121   -2.0056  -22.6301 H   0  0  0  0  0  0  0  0  0  0  0  0
  -11.5219   -2.0292  -21.7984 H   0  0  0  0  0  0  0  0  0  0  0  0
  -11.6071   -3.0506  -23.2736 H   0  0  0  0  0  0  0  0  0  0  0  0
   -9.1361   -0.1989  -23.2766 H   0  0  0  0  0  0  0  0  0  0  0  0
   -7.6794   -1.5688  -21.3766 H   0  0  0  0  0  0  0  0  0  0  0  0
   -8.4254   -0.4918  -18.5906 H   0  0  0  0  0  0  0  0  0  0  0  0
   -5.5243    1.4021  -17.3055 H   0  0  0  0  0  0  0  0  0  0  0  0
   -4.6196    1.5020  -19.1883 H   0  0  0  0  0  0  0  0  0  0  0  0
 20 21  2  0  0  0  0
 19 20  1  0  0  0  0
 21 22  1  0  0  0  0
 18 19  2  0  0  0  0
 22 23  2  0  0  0  0
 18 23  1  0  0  0  0
 17 18  1  0  0  0  0
 23 24  1  0  0  0  0
 15 17  1  0  0  0  0
 15 16  2  0  0  0  0
 14 15  1  0  0  0  0
  8 14  1  0  0  0  0
  7 14  1  0  0  0  0
 12 13  1  0  0  0  0
  8 13  1  0  0  0  0
 11 12  2  0  0  0  0
  7  8  1  0  0  0  0
  8  9  1  0  0  0  0
 10 11  1  0  0  0  0
  6  7  2  0  0  0  0
  5  6  1  0  0  0  0
  9 10  2  0  0  0  0
  2  5  1  0  0  0  0
  2  3  2  0  0  0  0
  1  2  1  0  0  0  0
  2  4  2  0  0  0  0
  1 25  1  0  0  0  0
  1 26  1  0  0  0  0
  1 27  1  0  0  0  0
  5 28  1  0  0  0  0
  6 29  1  0  0  0  0
  9 30  1  0  0  0  0
 10 31  1  0  0  0  0
 11 32  1  0  0  0  0
 12 33  1  0  0  0  0
 13 34  1  0  0  0  0
 13 35  1  0  0  0  0
 14 36  1  0  0  0  0
 17 37  1  0  0  0  0
 19 38  1  0  0  0  0
 21 39  1  0  0  0  0
 22 40  1  0  0  0  0
M  END
> <Chemgauss4>
-12.986319

$$$$
