REMARK  7 active torsions:
REMARK  status: ('A' for Active; 'I' for Inactive)
REMARK    1  A    between atoms: S_2  and  N_5 
REMARK    2  A    between atoms: N_5  and  C_7 
REMARK    3  A    between atoms: C_8  and  C_9 
REMARK    4  A    between atoms: C_9  and  C_12 
REMARK    5  A    between atoms: C_9  and  C_11 
REMARK    6  A    between atoms: C_12  and  C_13 
REMARK       I    between atoms: C_13  and  N_15 
REMARK    7  A    between atoms: C_17  and  C_21 
ROOT
HETATM    1  C   UNL     1       9.077   0.066  21.251  1.00  0.00     0.295 C 
HETATM    2  O   UNL     1       9.614   0.943  20.606  1.00  0.00    -0.258 OA
HETATM    3  N   UNL     1       7.854  -0.521  21.090  1.00  0.00    -0.307 N 
ATOM      4  HN  UNL     1       7.581  -1.332  21.646  1.00  0.00     0.170 HD
HETATM    5  C   UNL     1       7.051  -0.013  20.207  1.00  0.00     0.123 C 
HETATM    6  C   UNL     1       7.024   0.069  18.782  1.00  0.00     0.118 C 
HETATM    7  N   UNL     1       7.126   0.065  17.683  1.00  0.00    -0.190 NA
ENDROOT
BRANCH   5   8
HETATM    8  C   UNL     1       5.772   0.575  20.489  1.00  0.00     0.080 C 
HETATM    9  C   UNL     1       5.312   0.892  19.345  1.00  0.00    -0.044 C 
ENDBRANCH   5   8
BRANCH   1  10
HETATM   10  C   UNL     1       9.751  -0.485  22.277  1.00  0.00    -0.035 C 
BRANCH  10  11
HETATM   11  C   UNL     1      10.362  -1.242  23.050  1.00  0.00     0.069 C 
BRANCH  11  12
HETATM   12  C   UNL     1       9.566  -2.145  23.695  1.00  0.00    -0.035 C 
HETATM   13  C   UNL     1       8.958  -2.952  24.242  1.00  0.00     0.026 C 
BRANCH  13  14
HETATM   14  N   UNL     1       8.118  -3.683  24.733  1.00  0.00    -0.243 N 
ATOM     15  HN  UNL     1       7.289  -3.866  24.167  1.00  0.00     0.189 HD
BRANCH  14  16
HETATM   16  S   UNL     1       8.171  -4.394  26.179  1.00  0.00     0.233 S 
HETATM   17  C   UNL     1       6.732  -4.936  26.437  1.00  0.00     0.186 C 
HETATM   18  O   UNL     1       9.068  -5.533  26.112  1.00  0.00    -0.205 OA
HETATM   19  O   UNL     1       8.548  -3.464  27.190  1.00  0.00    -0.205 OA
ENDBRANCH  14  16
ENDBRANCH  13  14
ENDBRANCH  11  12
BRANCH  11  20
HETATM   20  C   UNL     1      11.808  -1.115  23.044  1.00  0.00     0.019 C 
HETATM   21  C   UNL     1      12.212  -0.108  23.933  1.00  0.00     0.013 C 
ENDBRANCH  11  20
ENDBRANCH  10  11
ENDBRANCH   1  10
TORSDOF 7
