MODEL 1
REMARK VINA RESULT:    -7.150      0.000      0.000
REMARK INTER + INTRA:         -11.289
REMARK INTER:                 -10.076
REMARK INTRA:                  -1.213
REMARK UNBOUND:                -1.213
REMARK  7 active torsions:
REMARK  status: ('A' for Active; 'I' for Inactive)
REMARK    1  A    between atoms: S_2  and  N_5 
REMARK    2  A    between atoms: N_5  and  C_7 
REMARK    3  A    between atoms: C_7  and  C_8 
REMARK    4  A    between atoms: C_8  and  C_9 
REMARK    5  A    between atoms: C_9  and  C_15 
REMARK    6  A    between atoms: C_15  and  C_16 
REMARK       I    between atoms: C_16  and  N_18 
REMARK    7  A    between atoms: N_18  and  C_20 
ROOT
HETATM    1  C   UNL     1       9.465  -1.344  23.437  1.00  0.00     0.068 C 
HETATM    2  C   UNL     1       9.623  -0.218  24.566  1.00  0.00     0.000 C 
HETATM    3  C   UNL     1      10.626   0.305  24.850  1.00  0.00    -0.002 C 
HETATM    4  C   UNL     1      11.885   0.052  24.417  1.00  0.00    -0.001 C 
HETATM    5  C   UNL     1      11.871  -1.059  23.510  1.00  0.00    -0.002 C 
HETATM    6  C   UNL     1      11.028  -1.616  23.162  1.00  0.00     0.000 C 
ENDROOT
BRANCH   1   7
HETATM    7  C   UNL     1       8.625  -2.366  23.462  1.00  0.00     0.135 C 
BRANCH   7   8
HETATM    8  C   UNL     1       8.208  -3.448  23.095  1.00  0.00    -0.058 C 
BRANCH   8   9
HETATM    9  N   UNL     1       7.797  -4.295  22.389  1.00  0.00    -0.254 N 
ATOM     10  HN  UNL     1       8.481  -4.962  22.033  1.00  0.00     0.188 HD
BRANCH   9  11
HETATM   11  S   UNL     1       6.283  -4.513  21.926  1.00  0.00     0.233 S 
HETATM   12  C   UNL     1       5.426  -4.937  23.470  1.00  0.00     0.186 C 
HETATM   13  O   UNL     1       5.698  -3.291  21.459  1.00  0.00    -0.206 OA
HETATM   14  O   UNL     1       6.106  -5.620  21.035  1.00  0.00    -0.206 OA
ENDBRANCH   9  11
ENDBRANCH   8   9
ENDBRANCH   7   8
ENDBRANCH   1   7
BRANCH   1  15
HETATM   15  C   UNL     1       8.958  -0.876  22.401  1.00  0.00    -0.064 C 
BRANCH  15  16
HETATM   16  C   UNL     1       8.461  -0.316  21.307  1.00  0.00     0.290 C 
HETATM   17  O   UNL     1       9.203   0.306  20.675  1.00  0.00    -0.259 OA
HETATM   18  N   UNL     1       7.156  -0.617  21.161  1.00  0.00    -0.314 N 
ATOM     19  HN  UNL     1       6.648  -1.187  21.837  1.00  0.00     0.170 HD
BRANCH  18  20
HETATM   20  C   UNL     1       6.601  -0.138  20.116  1.00  0.00     0.072 A 
HETATM   21  C   UNL     1       6.307  -0.467  18.890  1.00  0.00     0.119 A 
HETATM   22  N   UNL     1       5.782  -0.363  17.749  1.00  0.00    -0.373 N 
HETATM   23  C   UNL     1       5.264   0.852  18.059  1.00  0.00     0.089 A 
ATOM     24  HN  UNL     1       5.757  -0.958  16.920  1.00  0.00     0.164 HD
HETATM   25  C   UNL     1       5.348   1.531  19.051  1.00  0.00     0.043 A 
HETATM   26  C   UNL     1       5.957   1.299  20.215  1.00  0.00     0.063 A 
HETATM   27 CL   UNL     1       6.046   2.197  21.442  1.00  0.00    -0.082 Cl
ENDBRANCH  18  20
ENDBRANCH  15  16
ENDBRANCH   1  15
TORSDOF 7
ENDMDL
MODEL 2
REMARK VINA RESULT:    -6.915      2.947      5.903
REMARK INTER + INTRA:         -10.957
REMARK INTER:                  -9.981
REMARK INTRA:                  -0.977
REMARK UNBOUND:                -1.213
REMARK  7 active torsions:
REMARK  status: ('A' for Active; 'I' for Inactive)
REMARK    1  A    between atoms: S_2  and  N_5 
REMARK    2  A    between atoms: N_5  and  C_7 
REMARK    3  A    between atoms: C_7  and  C_8 
REMARK    4  A    between atoms: C_8  and  C_9 
REMARK    5  A    between atoms: C_9  and  C_15 
REMARK    6  A    between atoms: C_15  and  C_16 
REMARK       I    between atoms: C_16  and  N_18 
REMARK    7  A    between atoms: N_18  and  C_20 
ROOT
HETATM    1  C   UNL     1      10.336  -0.838  23.406  1.00  0.00     0.068 C 
HETATM    2  C   UNL     1      11.639  -1.604  22.873  1.00  0.00     0.000 C 
HETATM    3  C   UNL     1      12.722  -1.431  23.267  1.00  0.00    -0.002 C 
HETATM    4  C   UNL     1      13.183  -0.512  24.152  1.00  0.00    -0.001 C 
HETATM    5  C   UNL     1      12.108   0.337  24.573  1.00  0.00    -0.002 C 
HETATM    6  C   UNL     1      11.076   0.281  24.297  1.00  0.00     0.000 C 
ENDROOT
BRANCH   1   7
HETATM    7  C   UNL     1       9.280  -0.497  22.687  1.00  0.00     0.135 C 
BRANCH   7   8
HETATM    8  C   UNL     1       8.663  -0.353  21.648  1.00  0.00    -0.058 C 
BRANCH   8   9
HETATM    9  N   UNL     1       8.421  -0.343  20.497  1.00  0.00    -0.254 N 
ATOM     10  HN  UNL     1       9.082  -0.827  19.889  1.00  0.00     0.188 HD
BRANCH   9  11
HETATM   11  S   UNL     1       7.169   0.346  19.781  1.00  0.00     0.233 S 
HETATM   12  C   UNL     1       5.879  -0.929  19.869  1.00  0.00     0.186 C 
HETATM   13  O   UNL     1       6.687   1.465  20.535  1.00  0.00    -0.206 OA
HETATM   14  O   UNL     1       7.382   0.627  18.393  1.00  0.00    -0.206 OA
ENDBRANCH   9  11
ENDBRANCH   8   9
ENDBRANCH   7   8
ENDBRANCH   1   7
BRANCH   1  15
HETATM   15  C   UNL     1       9.663  -1.562  24.161  1.00  0.00    -0.064 C 
BRANCH  15  16
HETATM   16  C   UNL     1       8.999  -2.323  25.019  1.00  0.00     0.290 C 
HETATM   17  O   UNL     1       8.768  -1.846  26.048  1.00  0.00    -0.259 OA
HETATM   18  N   UNL     1       8.717  -3.525  24.481  1.00  0.00    -0.314 N 
ATOM     19  HN  UNL     1       9.012  -3.785  23.539  1.00  0.00     0.170 HD
BRANCH  18  20
HETATM   20  C   UNL     1       8.054  -4.317  25.231  1.00  0.00     0.072 A 
HETATM   21  C   UNL     1       8.222  -5.135  26.230  1.00  0.00     0.119 A 
HETATM   22  N   UNL     1       7.899  -5.911  27.170  1.00  0.00    -0.373 N 
HETATM   23  C   UNL     1       6.582  -5.785  26.866  1.00  0.00     0.089 A 
ATOM     24  HN  UNL     1       8.420  -6.428  27.878  1.00  0.00     0.164 HD
HETATM   25  C   UNL     1       6.014  -5.179  25.994  1.00  0.00     0.043 A 
HETATM   26  C   UNL     1       6.491  -4.383  25.035  1.00  0.00     0.063 A 
HETATM   27 CL   UNL     1       5.730  -3.644  23.941  1.00  0.00    -0.082 Cl
ENDBRANCH  18  20
ENDBRANCH  15  16
ENDBRANCH   1  15
TORSDOF 7
ENDMDL
MODEL 3
REMARK VINA RESULT:    -6.651      4.147      6.238
REMARK INTER + INTRA:         -10.585
REMARK INTER:                  -9.716
REMARK INTRA:                  -0.869
REMARK UNBOUND:                -1.213
REMARK  7 active torsions:
REMARK  status: ('A' for Active; 'I' for Inactive)
REMARK    1  A    between atoms: S_2  and  N_5 
REMARK    2  A    between atoms: N_5  and  C_7 
REMARK    3  A    between atoms: C_7  and  C_8 
REMARK    4  A    between atoms: C_8  and  C_9 
REMARK    5  A    between atoms: C_9  and  C_15 
REMARK    6  A    between atoms: C_15  and  C_16 
REMARK       I    between atoms: C_16  and  N_18 
REMARK    7  A    between atoms: N_18  and  C_20 
ROOT
HETATM    1  C   UNL     1       7.477  -4.856  23.844  1.00  0.00     0.068 C 
HETATM    2  C   UNL     1       7.610  -5.638  22.452  1.00  0.00     0.000 C 
HETATM    3  C   UNL     1       6.722  -5.893  21.743  1.00  0.00    -0.002 C 
HETATM    4  C   UNL     1       5.390  -5.714  21.927  1.00  0.00    -0.001 C 
HETATM    5  C   UNL     1       5.152  -5.158  23.227  1.00  0.00    -0.002 C 
HETATM    6  C   UNL     1       5.871  -4.873  23.965  1.00  0.00     0.000 C 
ENDROOT
BRANCH   1   7
HETATM    7  C   UNL     1       8.208  -5.055  24.928  1.00  0.00     0.135 C 
BRANCH   7   8
HETATM    8  C   UNL     1       8.379  -5.379  26.088  1.00  0.00    -0.058 C 
BRANCH   8   9
HETATM    9  N   UNL     1       8.143  -5.646  27.210  1.00  0.00    -0.254 N 
ATOM     10  HN  UNL     1       8.945  -5.807  27.817  1.00  0.00     0.188 HD
BRANCH   9  11
HETATM   11  S   UNL     1       6.700  -5.784  27.884  1.00  0.00     0.233 S 
HETATM   12  C   UNL     1       5.951  -4.151  27.616  1.00  0.00     0.186 C 
HETATM   13  O   UNL     1       5.882  -6.727  27.180  1.00  0.00    -0.206 OA
HETATM   14  O   UNL     1       6.744  -5.995  29.300  1.00  0.00    -0.206 OA
ENDBRANCH   9  11
ENDBRANCH   8   9
ENDBRANCH   7   8
ENDBRANCH   1   7
BRANCH   1  15
HETATM   15  C   UNL     1       7.852  -3.674  23.737  1.00  0.00    -0.064 C 
BRANCH  15  16
HETATM   16  C   UNL     1       8.299  -2.438  23.567  1.00  0.00     0.290 C 
HETATM   17  O   UNL     1       7.880  -1.868  22.652  1.00  0.00    -0.259 OA
HETATM   18  N   UNL     1       9.168  -2.101  24.540  1.00  0.00    -0.314 N 
ATOM     19  HN  UNL     1       9.435  -2.749  25.282  1.00  0.00     0.170 HD
BRANCH  18  20
HETATM   20  C   UNL     1       9.631  -0.915  24.470  1.00  0.00     0.072 A 
HETATM   21  C   UNL     1       9.377   0.293  24.886  1.00  0.00     0.119 A 
HETATM   22  N   UNL     1       9.574   1.521  25.096  1.00  0.00    -0.373 N 
HETATM   23  C   UNL     1      10.760   1.478  24.439  1.00  0.00     0.089 A 
ATOM     24  HN  UNL     1       9.049   2.256  25.571  1.00  0.00     0.164 HD
HETATM   25  C   UNL     1      11.328   0.584  23.865  1.00  0.00     0.043 A 
HETATM   26  C   UNL     1      10.995  -0.699  23.708  1.00  0.00     0.063 A 
HETATM   27 CL   UNL     1      11.743  -1.795  22.959  1.00  0.00    -0.082 Cl
ENDBRANCH  18  20
ENDBRANCH  15  16
ENDBRANCH   1  15
TORSDOF 7
ENDMDL
MODEL 4
REMARK VINA RESULT:    -6.579      4.243      6.269
REMARK INTER + INTRA:         -10.485
REMARK INTER:                  -9.746
REMARK INTRA:                  -0.738
REMARK UNBOUND:                -1.213
REMARK  7 active torsions:
REMARK  status: ('A' for Active; 'I' for Inactive)
REMARK    1  A    between atoms: S_2  and  N_5 
REMARK    2  A    between atoms: N_5  and  C_7 
REMARK    3  A    between atoms: C_7  and  C_8 
REMARK    4  A    between atoms: C_8  and  C_9 
REMARK    5  A    between atoms: C_9  and  C_15 
REMARK    6  A    between atoms: C_15  and  C_16 
REMARK       I    between atoms: C_16  and  N_18 
REMARK    7  A    between atoms: N_18  and  C_20 
ROOT
HETATM    1  C   UNL     1       7.476  -4.552  24.159  1.00  0.00     0.068 C 
HETATM    2  C   UNL     1       7.624  -5.618  22.972  1.00  0.00     0.000 C 
HETATM    3  C   UNL     1       6.852  -5.770  22.112  1.00  0.00    -0.002 C 
HETATM    4  C   UNL     1       5.631  -5.206  21.938  1.00  0.00    -0.001 C 
HETATM    5  C   UNL     1       5.334  -4.344  23.044  1.00  0.00    -0.002 C 
HETATM    6  C   UNL     1       5.952  -4.113  23.885  1.00  0.00     0.000 C 
ENDROOT
BRANCH   1   7
HETATM    7  C   UNL     1       7.890  -4.705  25.406  1.00  0.00     0.135 C 
BRANCH   7   8
HETATM    8  C   UNL     1       7.816  -5.149  26.537  1.00  0.00    -0.058 C 
BRANCH   8   9
HETATM    9  N   UNL     1       7.799  -5.921  27.424  1.00  0.00    -0.254 N 
ATOM     10  HN  UNL     1       8.629  -6.501  27.538  1.00  0.00     0.188 HD
BRANCH   9  11
HETATM   11  S   UNL     1       6.614  -6.160  28.470  1.00  0.00     0.233 S 
HETATM   12  C   UNL     1       5.164  -6.435  27.411  1.00  0.00     0.186 C 
HETATM   13  O   UNL     1       6.809  -7.368  29.215  1.00  0.00    -0.206 OA
HETATM   14  O   UNL     1       6.324  -5.016  29.283  1.00  0.00    -0.206 OA
ENDBRANCH   9  11
ENDBRANCH   8   9
ENDBRANCH   7   8
ENDBRANCH   1   7
BRANCH   1  15
HETATM   15  C   UNL     1       8.211  -3.565  23.974  1.00  0.00    -0.064 C 
BRANCH  15  16
HETATM   16  C   UNL     1       9.006  -2.539  23.706  1.00  0.00     0.290 C 
HETATM   17  O   UNL     1       9.211  -2.335  22.586  1.00  0.00    -0.259 OA
HETATM   18  N   UNL     1       9.407  -1.930  24.839  1.00  0.00    -0.314 N 
ATOM     19  HN  UNL     1       9.129  -2.259  25.764  1.00  0.00     0.170 HD
BRANCH  18  20
HETATM   20  C   UNL     1      10.158  -0.912  24.674  1.00  0.00     0.072 A 
HETATM   21  C   UNL     1      11.388  -0.605  24.373  1.00  0.00     0.119 A 
HETATM   22  N   UNL     1      12.365   0.130  24.067  1.00  0.00    -0.373 N 
HETATM   23  C   UNL     1      11.599   1.246  24.158  1.00  0.00     0.089 A 
ATOM     24  HN  UNL     1      13.345  -0.045  23.840  1.00  0.00     0.164 HD
HETATM   25  C   UNL     1      10.444   1.404  24.461  1.00  0.00     0.043 A 
HETATM   26  C   UNL     1       9.499   0.517  24.779  1.00  0.00     0.063 A 
HETATM   27 CL   UNL     1       8.047   0.766  25.169  1.00  0.00    -0.082 Cl
ENDBRANCH  18  20
ENDBRANCH  15  16
ENDBRANCH   1  15
TORSDOF 7
ENDMDL
MODEL 5
REMARK VINA RESULT:    -6.407      2.994      6.199
REMARK INTER + INTRA:         -10.242
REMARK INTER:                  -8.616
REMARK INTRA:                  -1.626
REMARK UNBOUND:                -1.213
REMARK  7 active torsions:
REMARK  status: ('A' for Active; 'I' for Inactive)
REMARK    1  A    between atoms: S_2  and  N_5 
REMARK    2  A    between atoms: N_5  and  C_7 
REMARK    3  A    between atoms: C_7  and  C_8 
REMARK    4  A    between atoms: C_8  and  C_9 
REMARK    5  A    between atoms: C_9  and  C_15 
REMARK    6  A    between atoms: C_15  and  C_16 
REMARK       I    between atoms: C_16  and  N_18 
REMARK    7  A    between atoms: N_18  and  C_20 
ROOT
HETATM    1  C   UNL     1       7.613   0.791  21.132  1.00  0.00     0.068 C 
HETATM    2  C   UNL     1       6.262   1.581  20.790  1.00  0.00     0.000 C 
HETATM    3  C   UNL     1       5.633   1.437  19.819  1.00  0.00    -0.002 C 
HETATM    4  C   UNL     1       5.902   0.693  18.718  1.00  0.00    -0.001 C 
HETATM    5  C   UNL     1       7.183   0.065  18.860  1.00  0.00    -0.002 C 
HETATM    6  C   UNL     1       7.850   0.106  19.694  1.00  0.00     0.000 C 
ENDROOT
BRANCH   1   7
HETATM    7  C   UNL     1       8.651   1.268  21.799  1.00  0.00     0.135 C 
BRANCH   7   8
HETATM    8  C   UNL     1       9.763   1.198  22.288  1.00  0.00    -0.058 C 
BRANCH   8   9
HETATM    9  N   UNL     1      10.811   0.761  22.599  1.00  0.00    -0.254 N 
ATOM     10  HN  UNL     1      11.631   1.281  22.288  1.00  0.00     0.188 HD
BRANCH   9  11
HETATM   11  S   UNL     1      11.087  -0.559  23.457  1.00  0.00     0.233 S 
HETATM   12  C   UNL     1      12.733  -0.264  24.166  1.00  0.00     0.186 C 
HETATM   13  O   UNL     1      10.181  -0.664  24.562  1.00  0.00    -0.206 OA
HETATM   14  O   UNL     1      11.182  -1.750  22.667  1.00  0.00    -0.206 OA
ENDBRANCH   9  11
ENDBRANCH   8   9
ENDBRANCH   7   8
ENDBRANCH   1   7
BRANCH   1  15
HETATM   15  C   UNL     1       7.413  -0.108  21.969  1.00  0.00    -0.064 C 
BRANCH  15  16
HETATM   16  C   UNL     1       7.252  -1.107  22.824  1.00  0.00     0.290 C 
HETATM   17  O   UNL     1       6.476  -0.936  23.665  1.00  0.00    -0.259 OA
HETATM   18  N   UNL     1       8.048  -2.147  22.507  1.00  0.00    -0.314 N 
ATOM     19  HN  UNL     1       8.692  -2.120  21.717  1.00  0.00     0.170 HD
BRANCH  18  20
HETATM   20  C   UNL     1       7.939  -3.167  23.266  1.00  0.00     0.072 A 
HETATM   21  C   UNL     1       8.384  -3.634  24.398  1.00  0.00     0.119 A 
HETATM   22  N   UNL     1       8.464  -4.408  25.390  1.00  0.00    -0.373 N 
HETATM   23  C   UNL     1       7.511  -5.224  24.873  1.00  0.00     0.089 A 
ATOM     24  HN  UNL     1       9.024  -4.417  26.243  1.00  0.00     0.164 HD
HETATM   25  C   UNL     1       6.895  -5.185  23.838  1.00  0.00     0.043 A 
HETATM   26  C   UNL     1       6.915  -4.292  22.848  1.00  0.00     0.063 A 
HETATM   27 CL   UNL     1       6.123  -4.291  21.546  1.00  0.00    -0.082 Cl
ENDBRANCH  18  20
ENDBRANCH  15  16
ENDBRANCH   1  15
TORSDOF 7
ENDMDL
MODEL 6
REMARK VINA RESULT:    -6.284      2.848      5.478
REMARK INTER + INTRA:         -10.069
REMARK INTER:                  -8.519
REMARK INTRA:                  -1.550
REMARK UNBOUND:                -1.213
REMARK  7 active torsions:
REMARK  status: ('A' for Active; 'I' for Inactive)
REMARK    1  A    between atoms: S_2  and  N_5 
REMARK    2  A    between atoms: N_5  and  C_7 
REMARK    3  A    between atoms: C_7  and  C_8 
REMARK    4  A    between atoms: C_8  and  C_9 
REMARK    5  A    between atoms: C_9  and  C_15 
REMARK    6  A    between atoms: C_15  and  C_16 
REMARK       I    between atoms: C_16  and  N_18 
REMARK    7  A    between atoms: N_18  and  C_20 
ROOT
HETATM    1  C   UNL     1       6.321  -3.018  22.287  1.00  0.00     0.068 C 
HETATM    2  C   UNL     1       5.249  -3.355  23.430  1.00  0.00     0.000 C 
HETATM    3  C   UNL     1       5.368  -4.195  24.229  1.00  0.00    -0.002 C 
HETATM    4  C   UNL     1       6.330  -5.143  24.349  1.00  0.00    -0.001 C 
HETATM    5  C   UNL     1       7.263  -5.025  23.266  1.00  0.00    -0.002 C 
HETATM    6  C   UNL     1       7.273  -4.301  22.480  1.00  0.00     0.000 C 
ENDROOT
BRANCH   1   7
HETATM    7  C   UNL     1       6.053  -2.589  21.065  1.00  0.00     0.135 C 
BRANCH   7   8
HETATM    8  C   UNL     1       5.596  -1.803  20.257  1.00  0.00    -0.058 C 
BRANCH   8   9
HETATM    9  N   UNL     1       5.538  -0.916  19.486  1.00  0.00    -0.254 N 
ATOM     10  HN  UNL     1       4.778  -0.952  18.807  1.00  0.00     0.188 HD
BRANCH   9  11
HETATM   11  S   UNL     1       6.520   0.342  19.388  1.00  0.00     0.233 S 
HETATM   12  C   UNL     1       5.929   1.225  17.915  1.00  0.00     0.186 C 
HETATM   13  O   UNL     1       6.341   1.233  20.496  1.00  0.00    -0.206 OA
HETATM   14  O   UNL     1       7.886  -0.013  19.140  1.00  0.00    -0.206 OA
ENDBRANCH   9  11
ENDBRANCH   8   9
ENDBRANCH   7   8
ENDBRANCH   1   7
BRANCH   1  15
HETATM   15  C   UNL     1       6.974  -1.996  22.566  1.00  0.00    -0.064 C 
BRANCH  15  16
HETATM   16  C   UNL     1       7.610  -0.884  22.906  1.00  0.00     0.290 C 
HETATM   17  O   UNL     1       7.167  -0.299  23.800  1.00  0.00    -0.259 OA
HETATM   18  N   UNL     1       8.679  -0.678  22.113  1.00  0.00    -0.314 N 
ATOM     19  HN  UNL     1       8.922  -1.309  21.349  1.00  0.00     0.170 HD
BRANCH  18  20
HETATM   20  C   UNL     1       9.368   0.361  22.386  1.00  0.00     0.072 A 
HETATM   21  C   UNL     1       9.414   1.637  22.128  1.00  0.00     0.119 A 
HETATM   22  N   UNL     1       9.792   2.835  22.230  1.00  0.00    -0.373 N 
HETATM   23  C   UNL     1      10.726   2.498  23.154  1.00  0.00     0.089 A 
ATOM     24  HN  UNL     1       9.508   3.712  21.791  1.00  0.00     0.164 HD
HETATM   25  C   UNL     1      11.045   1.434  23.622  1.00  0.00     0.043 A 
HETATM   26  C   UNL     1      10.555   0.211  23.414  1.00  0.00     0.063 A 
HETATM   27 CL   UNL     1      11.001  -1.113  24.023  1.00  0.00    -0.082 Cl
ENDBRANCH  18  20
ENDBRANCH  15  16
ENDBRANCH   1  15
TORSDOF 7
ENDMDL
MODEL 7
REMARK VINA RESULT:    -6.130     14.827     16.067
REMARK INTER + INTRA:          -9.851
REMARK INTER:                  -8.892
REMARK INTRA:                  -0.959
REMARK UNBOUND:                -1.213
REMARK  7 active torsions:
REMARK  status: ('A' for Active; 'I' for Inactive)
REMARK    1  A    between atoms: S_2  and  N_5 
REMARK    2  A    between atoms: N_5  and  C_7 
REMARK    3  A    between atoms: C_7  and  C_8 
REMARK    4  A    between atoms: C_8  and  C_9 
REMARK    5  A    between atoms: C_9  and  C_15 
REMARK    6  A    between atoms: C_15  and  C_16 
REMARK       I    between atoms: C_16  and  N_18 
REMARK    7  A    between atoms: N_18  and  C_20 
ROOT
HETATM    1  C   UNL     1      23.141  -1.584  23.671  1.00  0.00     0.068 C 
HETATM    2  C   UNL     1      21.757  -1.436  24.465  1.00  0.00     0.000 C 
HETATM    3  C   UNL     1      21.386  -0.460  24.982  1.00  0.00    -0.002 C 
HETATM    4  C   UNL     1      22.024   0.726  25.149  1.00  0.00    -0.001 C 
HETATM    5  C   UNL     1      23.348   0.643  24.606  1.00  0.00    -0.002 C 
HETATM    6  C   UNL     1      23.805  -0.182  24.102  1.00  0.00     0.000 C 
ENDROOT
BRANCH   1   7
HETATM    7  C   UNL     1      23.899  -2.667  23.613  1.00  0.00     0.135 C 
BRANCH   7   8
HETATM    8  C   UNL     1      24.158  -3.833  23.838  1.00  0.00    -0.058 C 
BRANCH   8   9
HETATM    9  N   UNL     1      24.006  -4.984  24.036  1.00  0.00    -0.254 N 
ATOM     10  HN  UNL     1      23.860  -5.570  23.215  1.00  0.00     0.188 HD
BRANCH   9  11
HETATM   11  S   UNL     1      24.004  -5.726  25.451  1.00  0.00     0.233 S 
HETATM   12  C   UNL     1      25.691  -5.459  26.070  1.00  0.00     0.186 C 
HETATM   13  O   UNL     1      23.124  -5.080  26.379  1.00  0.00    -0.206 OA
HETATM   14  O   UNL     1      23.814  -7.143  25.358  1.00  0.00    -0.206 OA
ENDBRANCH   9  11
ENDBRANCH   8   9
ENDBRANCH   7   8
ENDBRANCH   1   7
BRANCH   1  15
HETATM   15  C   UNL     1      22.960  -1.573  22.440  1.00  0.00    -0.064 C 
BRANCH  15  16
HETATM   16  C   UNL     1      22.730  -1.628  21.136  1.00  0.00     0.290 C 
HETATM   17  O   UNL     1      21.656  -1.923  20.822  1.00  0.00    -0.259 OA
HETATM   18  N   UNL     1      23.835  -1.305  20.437  1.00  0.00    -0.314 N 
ATOM     19  HN  UNL     1      24.720  -1.074  20.890  1.00  0.00     0.170 HD
BRANCH  18  20
HETATM   20  C   UNL     1      23.698  -1.307  19.168  1.00  0.00     0.072 A 
HETATM   21  C   UNL     1      23.366  -0.514  18.189  1.00  0.00     0.119 A 
HETATM   22  N   UNL     1      23.209  -0.136  16.997  1.00  0.00    -0.373 N 
HETATM   23  C   UNL     1      23.625  -1.338  16.524  1.00  0.00     0.089 A 
ATOM     24  HN  UNL     1      22.893   0.731  16.560  1.00  0.00     0.164 HD
HETATM   25  C   UNL     1      23.961  -2.349  17.086  1.00  0.00     0.043 A 
HETATM   26  C   UNL     1      24.078  -2.623  18.387  1.00  0.00     0.063 A 
HETATM   27 CL   UNL     1      24.498  -3.927  19.054  1.00  0.00    -0.082 Cl
ENDBRANCH  18  20
ENDBRANCH  15  16
ENDBRANCH   1  15
TORSDOF 7
ENDMDL
MODEL 8
REMARK VINA RESULT:    -5.877      4.054      6.489
REMARK INTER + INTRA:          -9.494
REMARK INTER:                  -8.513
REMARK INTRA:                  -0.981
REMARK UNBOUND:                -1.213
REMARK  7 active torsions:
REMARK  status: ('A' for Active; 'I' for Inactive)
REMARK    1  A    between atoms: S_2  and  N_5 
REMARK    2  A    between atoms: N_5  and  C_7 
REMARK    3  A    between atoms: C_7  and  C_8 
REMARK    4  A    between atoms: C_8  and  C_9 
REMARK    5  A    between atoms: C_9  and  C_15 
REMARK    6  A    between atoms: C_15  and  C_16 
REMARK       I    between atoms: C_16  and  N_18 
REMARK    7  A    between atoms: N_18  and  C_20 
ROOT
HETATM    1  C   UNL     1      10.391  -0.607  23.665  1.00  0.00     0.068 C 
HETATM    2  C   UNL     1      11.436  -1.489  22.830  1.00  0.00     0.000 C 
HETATM    3  C   UNL     1      12.580  -1.551  23.047  1.00  0.00    -0.002 C 
HETATM    4  C   UNL     1      13.329  -0.856  23.938  1.00  0.00    -0.001 C 
HETATM    5  C   UNL     1      12.503   0.086  24.634  1.00  0.00    -0.002 C 
HETATM    6  C   UNL     1      11.449   0.238  24.537  1.00  0.00     0.000 C 
ENDROOT
BRANCH   1   7
HETATM    7  C   UNL     1       9.318  -0.000  23.185  1.00  0.00     0.135 C 
BRANCH   7   8
HETATM    8  C   UNL     1       8.479   0.879  23.160  1.00  0.00    -0.058 C 
BRANCH   8   9
HETATM    9  N   UNL     1       7.747   1.700  22.740  1.00  0.00    -0.254 N 
ATOM     10  HN  UNL     1       7.559   1.672  21.739  1.00  0.00     0.188 HD
BRANCH   9  11
HETATM   11  S   UNL     1       7.016   2.855  23.570  1.00  0.00     0.233 S 
HETATM   12  C   UNL     1       7.450   4.367  22.662  1.00  0.00     0.186 C 
HETATM   13  O   UNL     1       5.591   2.730  23.495  1.00  0.00    -0.206 OA
HETATM   14  O   UNL     1       7.518   3.012  24.903  1.00  0.00    -0.206 OA
ENDBRANCH   9  11
ENDBRANCH   8   9
ENDBRANCH   7   8
ENDBRANCH   1   7
BRANCH   1  15
HETATM   15  C   UNL     1       9.718  -1.314  24.438  1.00  0.00    -0.064 C 
BRANCH  15  16
HETATM   16  C   UNL     1       9.036  -2.128  25.230  1.00  0.00     0.290 C 
HETATM   17  O   UNL     1       8.732  -1.697  26.259  1.00  0.00    -0.259 OA
HETATM   18  N   UNL     1       8.830  -3.319  24.636  1.00  0.00    -0.314 N 
ATOM     19  HN  UNL     1       9.186  -3.534  23.704  1.00  0.00     0.170 HD
BRANCH  18  20
HETATM   20  C   UNL     1       8.156  -4.160  25.320  1.00  0.00     0.072 A 
HETATM   21  C   UNL     1       8.310  -5.045  26.263  1.00  0.00     0.119 A 
HETATM   22  N   UNL     1       7.972  -5.884  27.142  1.00  0.00    -0.373 N 
HETATM   23  C   UNL     1       6.660  -5.736  26.828  1.00  0.00     0.089 A 
ATOM     24  HN  UNL     1       8.483  -6.450  27.820  1.00  0.00     0.164 HD
HETATM   25  C   UNL     1       6.105  -5.071  25.991  1.00  0.00     0.043 A 
HETATM   26  C   UNL     1       6.596  -4.211  25.098  1.00  0.00     0.063 A 
HETATM   27 CL   UNL     1       5.851  -3.398  24.046  1.00  0.00    -0.082 Cl
ENDBRANCH  18  20
ENDBRANCH  15  16
ENDBRANCH   1  15
TORSDOF 7
ENDMDL
MODEL 9
REMARK VINA RESULT:    -5.808     22.789     25.788
REMARK INTER + INTRA:          -9.397
REMARK INTER:                  -8.279
REMARK INTRA:                  -1.118
REMARK UNBOUND:                -1.213
REMARK  7 active torsions:
REMARK  status: ('A' for Active; 'I' for Inactive)
REMARK    1  A    between atoms: S_2  and  N_5 
REMARK    2  A    between atoms: N_5  and  C_7 
REMARK    3  A    between atoms: C_7  and  C_8 
REMARK    4  A    between atoms: C_8  and  C_9 
REMARK    5  A    between atoms: C_9  and  C_15 
REMARK    6  A    between atoms: C_15  and  C_16 
REMARK       I    between atoms: C_16  and  N_18 
REMARK    7  A    between atoms: N_18  and  C_20 
ROOT
HETATM    1  C   UNL     1       8.174  17.172   1.730  1.00  0.00     0.068 C 
HETATM    2  C   UNL     1       8.978  17.741   0.466  1.00  0.00     0.000 C 
HETATM    3  C   UNL     1       8.889  18.827   0.053  1.00  0.00    -0.002 C 
HETATM    4  C   UNL     1       8.051  19.827   0.425  1.00  0.00    -0.001 C 
HETATM    5  C   UNL     1       7.171  19.361   1.456  1.00  0.00    -0.002 C 
HETATM    6  C   UNL     1       7.153  18.401   1.925  1.00  0.00     0.000 C 
ENDROOT
BRANCH   1   7
HETATM    7  C   UNL     1       7.733  15.934   1.885  1.00  0.00     0.135 C 
BRANCH   7   8
HETATM    8  C   UNL     1       7.819  14.724   1.801  1.00  0.00    -0.058 C 
BRANCH   8   9
HETATM    9  N   UNL     1       7.937  13.597   2.120  1.00  0.00    -0.254 N 
ATOM     10  HN  UNL     1       7.819  12.902   1.385  1.00  0.00     0.188 HD
BRANCH   9  11
HETATM   11  S   UNL     1       8.263  13.039   3.582  1.00  0.00     0.233 S 
HETATM   12  C   UNL     1       7.725  11.306   3.502  1.00  0.00     0.186 C 
HETATM   13  O   UNL     1       9.674  13.016   3.831  1.00  0.00    -0.206 OA
HETATM   14  O   UNL     1       7.498  13.664   4.621  1.00  0.00    -0.206 OA
ENDBRANCH   9  11
ENDBRANCH   8   9
ENDBRANCH   7   8
ENDBRANCH   1   7
BRANCH   1  15
HETATM   15  C   UNL     1       8.904  17.101   2.735  1.00  0.00    -0.064 C 
BRANCH  15  16
HETATM   16  C   UNL     1       9.692  16.951   3.790  1.00  0.00     0.290 C 
HETATM   17  O   UNL     1      10.600  16.248   3.649  1.00  0.00    -0.259 OA
HETATM   18  N   UNL     1       9.253  17.687   4.829  1.00  0.00    -0.314 N 
ATOM     19  HN  UNL     1       8.408  18.257   4.777  1.00  0.00     0.170 HD
BRANCH  18  20
HETATM   20  C   UNL     1       9.969  17.623   5.883  1.00  0.00     0.072 A 
HETATM   21  C   UNL     1      11.072  18.104   6.384  1.00  0.00     0.119 A 
HETATM   22  N   UNL     1      11.951  18.342   7.255  1.00  0.00    -0.373 N 
HETATM   23  C   UNL     1      11.294  17.588   8.173  1.00  0.00     0.089 A 
ATOM     24  HN  UNL     1      12.815  18.885   7.267  1.00  0.00     0.164 HD
HETATM   25  C   UNL     1      10.284  16.936   8.101  1.00  0.00     0.043 A 
HETATM   26  C   UNL     1       9.433  16.759   7.089  1.00  0.00     0.063 A 
HETATM   27 CL   UNL     1       8.168  15.911   7.041  1.00  0.00    -0.082 Cl
ENDBRANCH  18  20
ENDBRANCH  15  16
ENDBRANCH   1  15
TORSDOF 7
ENDMDL
