REMARK  7 active torsions:
REMARK  status: ('A' for Active; 'I' for Inactive)
REMARK    1  A    between atoms: S_2  and  N_5 
REMARK    2  A    between atoms: N_5  and  C_7 
REMARK    3  A    between atoms: C_7  and  C_8 
REMARK    4  A    between atoms: C_8  and  C_9 
REMARK    5  A    between atoms: C_9  and  C_15 
REMARK    6  A    between atoms: C_15  and  C_16 
REMARK       I    between atoms: C_16  and  N_18 
REMARK    7  A    between atoms: N_18  and  C_20 
ROOT
HETATM    1  C   UNL     1      10.388  -1.133  23.237  1.00  0.00     0.068 C 
HETATM    2  C   UNL     1      11.014  -0.054  24.243  1.00  0.00     0.000 C 
HETATM    3  C   UNL     1      12.126   0.295  24.239  1.00  0.00    -0.002 C 
HETATM    4  C   UNL     1      13.172  -0.161  23.506  1.00  0.00    -0.001 C 
HETATM    5  C   UNL     1      12.744  -1.250  22.678  1.00  0.00    -0.002 C 
HETATM    6  C   UNL     1      11.761  -1.659  22.581  1.00  0.00     0.000 C 
ENDROOT
BRANCH   1   7
HETATM    7  C   UNL     1       9.431  -2.002  23.517  1.00  0.00     0.135 C 
BRANCH   7   8
HETATM    8  C   UNL     1       8.936  -2.920  24.143  1.00  0.00    -0.058 C 
BRANCH   8   9
HETATM    9  N   UNL     1       8.128  -3.582  24.685  1.00  0.00    -0.254 N 
ATOM     10  HN  UNL     1       7.241  -3.706  24.198  1.00  0.00     0.188 HD
BRANCH   9  11
HETATM   11  S   UNL     1       8.270  -4.308  26.102  1.00  0.00     0.233 S 
HETATM   12  C   UNL     1       6.582  -4.878  26.455  1.00  0.00     0.186 C 
HETATM   13  O   UNL     1       9.085  -5.483  26.008  1.00  0.00    -0.206 OA
HETATM   14  O   UNL     1       8.642  -3.425  27.167  1.00  0.00    -0.206 OA
ENDBRANCH   9  11
ENDBRANCH   8   9
ENDBRANCH   7   8
ENDBRANCH   1   7
BRANCH   1  15
HETATM   15  C   UNL     1       9.711  -0.584  22.349  1.00  0.00    -0.064 C 
BRANCH  15  16
HETATM   16  C   UNL     1       9.055   0.029  21.374  1.00  0.00     0.290 C 
HETATM   17  O   UNL     1       9.583   0.945  20.905  1.00  0.00    -0.259 OA
HETATM   18  N   UNL     1       7.879  -0.580  21.126  1.00  0.00    -0.314 N 
ATOM     19  HN  UNL     1       7.562  -1.392  21.656  1.00  0.00     0.170 HD
BRANCH  18  20
HETATM   20  C   UNL     1       7.190  -0.070  20.181  1.00  0.00     0.072 A 
HETATM   21  C   UNL     1       7.209   0.080  18.887  1.00  0.00     0.119 A 
HETATM   22  N   UNL     1       6.778   0.380  17.741  1.00  0.00    -0.373 N 
HETATM   23  C   UNL     1       5.612   0.839  18.262  1.00  0.00     0.089 A 
ATOM     24  HN  UNL     1       7.156   0.307  16.796  1.00  0.00     0.164 HD
HETATM   25  C   UNL     1       5.222   0.932  19.398  1.00  0.00     0.043 A 
HETATM   26  C   UNL     1       5.798   0.575  20.547  1.00  0.00     0.063 A 
HETATM   27 CL   UNL     1       5.268   0.724  21.968  1.00  0.00    -0.082 Cl
ENDBRANCH  18  20
ENDBRANCH  15  16
ENDBRANCH   1  15
TORSDOF 7
