stable:False satoms:11 tatoms:24 sratio:0.4583333333333333
  -OEChem-07092417463D

 24 25  0     1  0  0  0  0  0999 V2000
    6.5823   -4.8785   26.4554 C   0  0  0  0  0  0  0  0  0  0  0  0
    8.2697   -4.3081   26.1016 S   0  0  0  0  0  0  0  0  0  0  0  0
    9.0851   -5.4833   26.0080 O   0  0  0  0  0  0  0  0  0  0  0  0
    8.6419   -3.4250   27.1671 O   0  0  0  0  0  0  0  0  0  0  0  0
    8.1281   -3.5820   24.6852 N   0  0  0  0  0  0  0  0  0  0  0  0
    8.9357   -2.9202   24.1433 C   0  0  0  0  0  0  0  0  0  0  0  0
    9.4309   -2.0017   23.5175 C   0  0  0  0  0  0  0  0  0  0  0  0
   10.3884   -1.1330   23.2366 C   0  0  1  0  0  0  0  0  0  0  0  0
   11.0140   -0.0540   24.2426 C   0  0  0  0  0  0  0  0  0  0  0  0
   12.1262    0.2950   24.2390 C   0  0  0  0  0  0  0  0  0  0  0  0
   13.1720   -0.1607   23.5057 C   0  0  0  0  0  0  0  0  0  0  0  0
   12.7439   -1.2496   22.6776 C   0  0  0  0  0  0  0  0  0  0  0  0
   11.7613   -1.6589   22.5806 C   0  0  0  0  0  0  0  0  0  0  0  0
    9.7106   -0.5842   22.3488 C   0  0  0  0  0  0  0  0  0  0  0  0
    9.0551    0.0292   21.3737 C   0  0  0  0  0  0  0  0  0  0  0  0
    9.5833    0.9451   20.9052 O   0  0  0  0  0  0  0  0  0  0  0  0
    7.8794   -0.5795   21.1258 N   0  0  0  0  0  0  0  0  0  0  0  0
    7.1901   -0.0699   20.1812 C   0  0  0  0  0  0  0  0  0  0  0  0
    7.2091    0.0797   18.8875 C   0  0  0  0  0  0  0  0  0  0  0  0
    6.7776    0.3800   17.7407 N   0  0  0  0  0  0  0  0  0  0  0  0
    5.6122    0.8385   18.2618 C   0  0  0  0  0  0  0  0  0  0  0  0
    5.2220    0.9318   19.3976 C   0  0  0  0  0  0  0  0  0  0  0  0
    5.7977    0.5749   20.5466 C   0  0  0  0  0  0  0  0  0  0  0  0
    5.2675    0.7240   21.9677 Cl  0  0  0  0  0  0  0  0  0  0  0  0
 20 21  2  0  0  0  0
 19 20  1  0  0  0  0
 21 22  1  0  0  0  0
 18 19  2  0  0  0  0
 22 23  2  0  0  0  0
 18 23  1  0  0  0  0
 17 18  1  0  0  0  0
 23 24  1  0  0  0  0
 15 16  2  0  0  0  0
 15 17  1  0  0  0  0
 14 15  1  0  0  0  0
  8 14  1  0  0  0  0
 12 13  1  0  0  0  0
  8 13  1  0  0  0  0
 11 12  2  0  0  0  0
  7  8  1  0  0  0  0
  8  9  1  0  0  0  0
 10 11  1  0  0  0  0
  6  7  2  3  0  0  0
  5  6  1  0  0  0  0
  9 10  2  0  0  0  0
  2  5  1  0  0  0  0
  2  3  2  0  0  0  0
  1  2  1  0  0  0  0
  2  4  2  0  0  0  0
M  END
> <Shapegauss>
-285.862549

$$$$
