stable:False satoms:17 tatoms:24 sratio:0.7083333333333334
  -OEChem-08052419013D

 25 26  0     1  0  0  0  0  0999 V2000
   -6.7964   -6.1828  -24.3589 H   0  0  0  0  0  0  0  0  0  0  0  0
   -8.5993   -3.6861  -23.2441 C   0  0  0  0  0  2  0  0  0  0  0  0
  -13.5206   -1.8803  -23.3620 Br  0  0  0  0  0  0  0  0  0  0  0  0
  -12.1355   -0.7502  -23.6646 C   0  0  0  0  0  0  0  0  0  0  0  0
   -8.0384   -4.1354  -25.7205 H   0  0  0  0  0  0  0  0  0  0  0  0
  -10.1863    0.0788  -25.2261 C   0  0  0  0  0  0  0  0  0  0  0  0
   -8.1791   -5.0623  -25.3726 N   0  3  0  0  0  0  0  0  0  0  0  0
  -10.3444    0.3545  -27.0742 H   0  0  0  0  0  0  0  0  0  0  0  0
  -12.1916    0.5764  -24.1447 C   0  0  0  0  0  0  0  0  0  0  0  0
  -11.0150   -1.1840  -23.3736 N   0  0  1  0  0  0  0  0  0  0  0  0
  -13.0786    1.1637  -24.0111 H   0  0  0  0  0  0  0  0  0  0  0  0
   -9.6507    0.0291  -26.4316 N   0  3  0  0  0  0  0  0  0  0  0  0
   -8.7041   -2.9325  -24.2584 N   0  0  0  0  0  0  0  0  0  0  0  0
  -11.0143    1.0441  -24.7150 C   0  0  0  0  0  0  0  0  0  0  0  0
   -8.8424    0.6165  -26.4726 H   0  0  0  0  0  0  0  0  0  0  0  0
   -9.9213   -0.9898  -24.1756 C   0  0  2  0  0  0  0  0  0  0  0  0
   -9.3556   -0.7001  -23.1289 O   0  0  0  0  0  0  0  0  0  0  0  0
  -10.7176    2.0835  -24.7123 H   0  0  0  0  0  0  0  0  0  0  0  0
   -7.3939   -5.2651  -24.3294 C   0  0  0  0  0  0  0  0  0  0  0  0
   -7.4740   -4.5064  -23.2051 C   0  0  0  0  0  0  0  0  0  0  0  0
   -6.8295   -4.5757  -22.3495 H   0  0  0  0  0  0  0  0  0  0  0  0
   -9.4600   -2.2257  -24.9900 N   0  0  0  0  0  0  0  0  0  0  0  0
   -7.9590   -5.7242  -26.0891 H   0  0  0  0  0  0  0  0  0  0  0  0
   -9.1341   -5.1738  -25.0977 H   0  0  0  0  0  0  0  0  0  0  0  0
   -9.3913   -0.9108  -26.6534 H   0  0  0  0  0  0  0  0  0  0  0  0
 14 18  1  0  0  0  0
  9 11  1  0  0  0  0
 10 17  1  0  0  0  0
 16 17  1  0  0  0  0
  9 14  1  0  0  0  0
  6 14  2  0  0  0  0
  4  9  2  0  0  0  0
  4 10  1  0  0  0  0
 10 16  1  0  0  0  0
  3  4  1  0  0  0  0
  6 16  1  0  0  0  0
  6 12  1  0  0  0  0
 16 22  1  0  0  0  0
  8 12  1  0  0  0  0
 12 15  1  0  0  0  0
 20 21  1  0  0  0  0
  2 13  1  0  0  0  0
  2 20  1  0  0  0  0
 13 22  2  3  0  0  0
 19 20  2  0  0  0  0
  1 19  1  0  0  0  0
  7 19  1  0  0  0  0
  5  7  1  0  0  0  0
  7 23  1  0  0  0  0
  7 24  1  0  0  0  0
 12 25  1  0  0  0  0
M  CHG  2   7   1  12   1
M  END
> <Chemgauss4>
-6.926012

$$$$
