stable:False satoms:17 tatoms:24 sratio:0.7083333333333334
  -OEChem-08052419013D

 25 26  0     1  0  0  0  0  0999 V2000
   11.7437    6.5839   23.0183 H   0  0  0  0  0  0  0  0  0  0  0  0
   11.2725    3.5585   24.1810 C   0  0  0  0  0  2  0  0  0  0  0  0
   13.4836   -1.1953   24.1034 Br  0  0  0  0  0  0  0  0  0  0  0  0
   11.7014   -1.0226   23.8193 C   0  0  0  0  0  0  0  0  0  0  0  0
   11.1630    4.2380   21.6961 H   0  0  0  0  0  0  0  0  0  0  0  0
    9.7171   -0.2560   22.2702 C   0  0  0  0  0  0  0  0  0  0  0  0
   11.9208    4.8002   22.0273 N   0  3  0  0  0  0  0  0  0  0  0  0
    9.6128   -0.5886   20.4276 H   0  0  0  0  0  0  0  0  0  0  0  0
   10.7995   -2.0086   23.3635 C   0  0  0  0  0  0  0  0  0  0  0  0
   11.2170    0.0795   24.1007 N   0  0  1  0  0  0  0  0  0  0  0  0
   11.0151   -3.0487   23.5091 H   0  0  0  0  0  0  0  0  0  0  0  0
    9.3585    0.1404   21.0631 N   0  3  0  0  0  0  0  0  0  0  0  0
   10.8031    2.9366   23.1807 N   0  0  0  0  0  0  0  0  0  0  0  0
    9.6286   -1.5170   22.7999 C   0  0  0  0  0  0  0  0  0  0  0  0
    8.3709    0.2941   21.0316 H   0  0  0  0  0  0  0  0  0  0  0  0
   10.2956    0.7026   23.3006 C   0  0  2  0  0  0  0  0  0  0  0  0
    9.7027    0.9112   24.3516 O   0  0  0  0  0  0  0  0  0  0  0  0
    8.6850   -2.0439   22.8210 H   0  0  0  0  0  0  0  0  0  0  0  0
   11.5199    5.5125   23.0654 C   0  0  0  0  0  0  0  0  0  0  0  0
   11.0545    4.9343   24.2035 C   0  0  0  0  0  0  0  0  0  0  0  0
   10.6568    5.4501   25.0567 H   0  0  0  0  0  0  0  0  0  0  0  0
   10.8313    1.8922   22.4633 N   0  0  0  0  0  0  0  0  0  0  0  0
   12.2236    5.4144   21.2985 H   0  0  0  0  0  0  0  0  0  0  0  0
   12.6793    4.2091   22.3016 H   0  0  0  0  0  0  0  0  0  0  0  0
    9.8353    0.9862   20.8239 H   0  0  0  0  0  0  0  0  0  0  0  0
 14 18  1  0  0  0  0
  9 11  1  0  0  0  0
 10 17  1  0  0  0  0
 16 17  1  0  0  0  0
  9 14  1  0  0  0  0
  6 14  2  0  0  0  0
  4  9  2  0  0  0  0
  4 10  1  0  0  0  0
 10 16  1  0  0  0  0
  3  4  1  0  0  0  0
  6 16  1  0  0  0  0
  6 12  1  0  0  0  0
 16 22  1  0  0  0  0
  8 12  1  0  0  0  0
 12 15  1  0  0  0  0
 20 21  1  0  0  0  0
  2 13  1  0  0  0  0
  2 20  1  0  0  0  0
 13 22  2  3  0  0  0
 19 20  2  0  0  0  0
  1 19  1  0  0  0  0
  7 19  1  0  0  0  0
  5  7  1  0  0  0  0
  7 23  1  0  0  0  0
  7 24  1  0  0  0  0
 12 25  1  0  0  0  0
M  CHG  2   7   1  12   1
M  END
> <Chemgauss4>
-6.582785

$$$$
