
 OpenBabel07202414153D

 62 66  0  0  1  0  0  0  0  0999 V2000
    2.7343    4.8315   -4.7429 C   0  0  0  0  0  0  0  0  0  0  0  0
    4.4477    4.9882   -5.1882 S   0  0  0  0  0  0  0  0  0  0  0  0
    4.8390    3.8394   -5.9727 O   0  0  0  0  0  0  0  0  0  0  0  0
    4.6557    6.3354   -5.6755 O   0  0  0  0  0  0  0  0  0  0  0  0
    5.1871    4.9402   -3.6582 N   0  0  0  0  0  0  0  0  0  0  0  0
    5.6699    3.6670   -3.2302 C   0  0  0  0  0  0  0  0  0  0  0  0
    6.8676    3.1830   -3.7226 C   0  0  0  0  0  0  0  0  0  0  0  0
    7.2926    1.8999   -3.3713 C   0  0  0  0  0  0  0  0  0  0  0  0
    6.5990    1.0819   -2.4463 C   0  0  0  0  0  0  0  0  0  0  0  0
    7.0133   -0.1970   -1.9658 C   0  0  0  0  0  0  0  0  0  0  0  0
    8.2641   -0.8594   -2.1639 N   0  0  0  0  0  0  0  0  0  0  0  0
    9.4949   -0.3233   -2.4820 C   0  0  0  0  0  0  0  0  0  0  0  0
    9.7384    0.8772   -2.6016 O   0  0  0  0  0  0  0  0  0  0  0  0
   10.6761   -1.3164   -2.5551 C   0  0  2  0  0  0  0  0  0  0  0  0
   10.3003   -2.7935   -2.7813 C   0  0  0  0  0  0  0  0  0  0  0  0
    9.8577   -3.4586   -1.4954 N   0  0  0  0  0  0  0  0  0  0  0  0
    9.2722   -5.0809   -1.7566 S   0  0  0  0  0  0  0  0  0  0  0  0
    8.1459   -4.9383   -2.6503 O   0  0  0  0  0  0  0  0  0  0  0  0
   10.4185   -5.8944   -2.0958 O   0  0  0  0  0  0  0  0  0  0  0  0
    8.7013   -5.5158   -0.1123 C   0  0  0  0  0  0  0  0  0  0  0  0
    8.0905   -6.8965   -0.1058 C   0  0  0  0  0  0  0  0  0  0  0  0
    6.9284   -7.0876   -0.9315 C   0  0  0  0  0  0  0  0  0  0  0  0
    5.9653   -7.2698   -1.5582 N   0  0  0  0  0  0  0  0  0  0  0  0
    8.8749   -8.1488    0.2770 C   0  0  0  0  0  0  0  0  0  0  0  0
    8.0097   -7.4893    1.3038 C   0  0  0  0  0  0  0  0  0  0  0  0
   10.9548   -3.4122   -0.4834 C   0  0  0  0  0  0  0  0  0  0  0  0
   11.6220   -2.0716   -0.3287 C   0  0  0  0  0  0  0  0  0  0  0  0
   12.3522   -1.8066    0.8430 C   0  0  0  0  0  0  0  0  0  0  0  0
   13.0295   -0.5980    1.0023 C   0  0  0  0  0  0  0  0  0  0  0  0
   13.0126    0.3392   -0.0237 C   0  0  0  0  0  0  0  0  0  0  0  0
   13.8505    1.8286    0.1692 Cl  0  0  0  0  0  0  0  0  0  0  0  0
   12.3045    0.0841   -1.1960 C   0  0  0  0  0  0  0  0  0  0  0  0
   11.5783   -1.1130   -1.3480 C   0  0  0  0  0  0  0  0  0  0  0  0
    6.0902   -0.9059   -1.1840 C   0  0  0  0  0  0  0  0  0  0  0  0
    4.8799   -0.4575   -0.7893 N   0  0  0  0  0  0  0  0  0  0  0  0
    4.5458    0.7807   -1.2023 C   0  0  0  0  0  0  0  0  0  0  0  0
    5.3432    1.5880   -2.0137 C   0  0  0  0  0  0  0  0  0  0  0  0
    4.8890    2.8653   -2.4062 C   0  0  0  0  0  0  0  0  0  0  0  0
    2.1506    4.8126   -5.6656 H   0  0  0  0  0  0  0  0  0  0  0  0
    2.4460    5.6900   -4.1343 H   0  0  0  0  0  0  0  0  0  0  0  0
    2.5899    3.8961   -4.2003 H   0  0  0  0  0  0  0  0  0  0  0  0
    5.8927    5.6817   -3.6326 H   0  0  0  0  0  0  0  0  0  0  0  0
    7.4667    3.7661   -4.4170 H   0  0  0  0  0  0  0  0  0  0  0  0
    8.1796    1.5413   -3.8800 H   0  0  0  0  0  0  0  0  0  0  0  0
    8.3010   -1.8126   -1.8103 H   0  0  0  0  0  0  0  0  0  0  0  0
   11.2400   -1.0171   -3.4511 H   0  0  0  0  0  0  0  0  0  0  0  0
   11.1696   -3.3364   -3.1746 H   0  0  0  0  0  0  0  0  0  0  0  0
    9.5001   -2.8588   -3.5280 H   0  0  0  0  0  0  0  0  0  0  0  0
    7.9713   -4.7625    0.1950 H   0  0  0  0  0  0  0  0  0  0  0  0
    9.5694   -5.4974    0.5507 H   0  0  0  0  0  0  0  0  0  0  0  0
    9.9507   -8.0956    0.3971 H   0  0  0  0  0  0  0  0  0  0  0  0
    8.5366   -9.1213   -0.0769 H   0  0  0  0  0  0  0  0  0  0  0  0
    8.5160   -6.9920    2.1245 H   0  0  0  0  0  0  0  0  0  0  0  0
    7.0871   -7.9735    1.6085 H   0  0  0  0  0  0  0  0  0  0  0  0
   11.7301   -4.1476   -0.7267 H   0  0  0  0  0  0  0  0  0  0  0  0
   10.5175   -3.6518    0.4907 H   0  0  0  0  0  0  0  0  0  0  0  0
   12.3898   -2.5390    1.6467 H   0  0  0  0  0  0  0  0  0  0  0  0
   13.5665   -0.3965    1.9244 H   0  0  0  0  0  0  0  0  0  0  0  0
   12.2822    0.8405   -1.9799 H   0  0  0  0  0  0  0  0  0  0  0  0
    6.3196   -1.9013   -0.8099 H   0  0  0  0  0  0  0  0  0  0  0  0
    3.5682    1.1126   -0.8610 H   0  0  0  0  0  0  0  0  0  0  0  0
    3.9276    3.2354   -2.0601 H   0  0  0  0  0  0  0  0  0  0  0  0
  1  2  1  0  0  0  0
  1 39  1  0  0  0  0
  1 40  1  0  0  0  0
  1 41  1  0  0  0  0
  2  3  2  0  0  0  0
  2  4  2  0  0  0  0
  2  5  1  0  0  0  0
  5  6  1  0  0  0  0
  5 42  1  0  0  0  0
  6  7  1  0  0  0  0
  6 38  2  0  0  0  0
  7  8  2  0  0  0  0
  7 43  1  0  0  0  0
  8  9  1  0  0  0  0
  8 44  1  0  0  0  0
  9 10  1  0  0  0  0
  9 37  2  0  0  0  0
 10 11  1  0  0  0  0
 10 34  2  0  0  0  0
 11 12  1  0  0  0  0
 11 45  1  0  0  0  0
 12 13  2  0  0  0  0
 12 14  1  0  0  0  0
 14 15  1  0  0  0  0
 14 33  1  0  0  0  0
 14 46  1  6  0  0  0
 15 16  1  0  0  0  0
 15 47  1  0  0  0  0
 15 48  1  0  0  0  0
 16 17  1  0  0  0  0
 16 26  1  0  0  0  0
 17 18  2  0  0  0  0
 17 19  2  0  0  0  0
 17 20  1  0  0  0  0
 20 21  1  0  0  0  0
 20 49  1  0  0  0  0
 20 50  1  0  0  0  0
 21 22  1  0  0  0  0
 21 24  1  0  0  0  0
 21 25  1  0  0  0  0
 22 23  3  0  0  0  0
 24 25  1  0  0  0  0
 24 51  1  0  0  0  0
 24 52  1  0  0  0  0
 25 53  1  0  0  0  0
 25 54  1  0  0  0  0
 26 27  1  0  0  0  0
 26 55  1  0  0  0  0
 26 56  1  0  0  0  0
 27 28  1  0  0  0  0
 27 33  2  0  0  0  0
 28 29  2  0  0  0  0
 28 57  1  0  0  0  0
 29 30  1  0  0  0  0
 29 58  1  0  0  0  0
 30 31  1  0  0  0  0
 30 32  2  0  0  0  0
 32 33  1  0  0  0  0
 32 59  1  0  0  0  0
 34 35  1  0  0  0  0
 34 60  1  0  0  0  0
 35 36  2  0  0  0  0
 36 37  1  0  0  0  0
 36 61  1  0  0  0  0
 37 38  1  0  0  0  0
 38 62  1  0  0  0  0
M  END
$$$$
