stable:False satoms:19 tatoms:24 sratio:0.7916666666666666
  -OEChem-07092417303D

 24 24  0     1  0  0  0  0  0999 V2000
    6.9886   -2.9627   24.3832 O   0  0  0  0  0  0  0  0  0  0  0  0
    9.8251   -1.8433   21.1102 H   0  0  0  0  0  0  0  0  0  0  0  0
    8.4181   -0.8930   25.0337 C   0  3  0  0  0  0  0  0  0  0  0  0
   12.5917    0.5989   21.2808 H   0  0  0  0  0  0  0  0  0  0  0  0
   12.6702   -0.7173   19.2894 H   0  0  0  0  0  0  0  0  0  0  0  0
    9.6078   -0.8590   21.4685 C   0  0  0  0  0  0  0  0  0  0  0  0
   11.9179   -0.2418   21.1068 C   0  0  0  0  0  0  0  0  0  0  0  0
    8.1674   -0.6860   21.9228 C   0  0  1  0  0  0  0  0  0  0  0  0
    8.5328    0.3880   24.7506 O   0  0  0  0  0  0  0  0  0  0  0  0
    7.0535   -1.6799   21.8821 N   0  0  0  0  0  0  0  0  0  0  0  0
    7.6778   -1.7813   24.2334 C   0  0  3  0  0  0  0  0  0  0  0  0
    5.7324   -3.2547   23.7606 C   0  0  0  0  0  0  0  0  0  0  0  0
    7.6231   -1.3613   22.8682 C   0  0  3  0  0  0  0  0  0  0  0  0
    5.1085   -2.3764   23.7321 H   0  0  0  0  0  0  0  0  0  0  0  0
    8.9556   -1.1800   25.9141 H   0  0  0  0  0  0  0  0  0  0  0  0
    5.7755   -3.6696   22.7476 H   0  0  0  0  0  0  0  0  0  0  0  0
   10.5318    0.0639   21.5323 C   0  0  0  0  0  0  0  0  0  0  0  0
   10.3494    1.0639   21.8875 H   0  0  0  0  0  0  0  0  0  0  0  0
    5.3051   -4.0019   24.4165 H   0  0  0  0  0  0  0  0  0  0  0  0
   11.8843   -0.5495   19.7517 O   0  0  0  0  0  0  0  0  0  0  0  0
   12.2807   -1.0831   21.6911 H   0  0  0  0  0  0  0  0  0  0  0  0
    8.6968    0.6443   23.8546 H   0  0  0  0  0  0  0  0  0  0  0  0
    7.5324    0.8810   21.4245 Cl  0  0  0  0  0  0  0  0  0  0  0  0
    6.3574   -1.7895   21.2544 H   0  0  0  0  0  0  0  0  0  0  0  0
  5 20  1  0  0  0  0
  7 20  1  0  0  0  0
  4  7  1  0  0  0  0
  7 17  1  0  0  0  0
  7 21  1  0  0  0  0
  2  6  1  0  0  0  0
 10 24  1  0  0  0  0
  8 23  1  0  0  0  0
  6 17  2  0  0  0  0
  6  8  1  0  0  0  0
 17 18  1  0  0  0  0
  8 10  1  0  0  0  0
 10 13  1  0  0  0  0
  8 13  1  0  0  0  0
 12 16  1  0  0  0  0
 11 13  1  0  0  0  0
 12 14  1  0  0  0  0
  1 12  1  0  0  0  0
 12 19  1  0  0  0  0
  9 22  1  0  0  0  0
  1 11  1  0  0  0  0
  3 11  1  0  0  0  0
  3  9  1  0  0  0  0
  3 15  1  0  0  0  0
M  CHG  1   3   1
M  END
> <Shapegauss>
-89.256966

$$$$
