stable:False satoms:19 tatoms:24 sratio:0.7916666666666666
  -OEChem-08052414393D

 25 25  0     1  0  0  0  0  0999 V2000
  -13.1369   -0.5748  -23.3916 O   0  0  0  0  0  0  0  0  0  0  0  0
   -9.0172   -0.5183  -21.6491 H   0  0  0  0  0  0  0  0  0  0  0  0
  -11.4278    0.4919  -25.0321 C   0  0  0  0  0  2  0  0  0  0  0  0
   -6.0472    1.2328  -22.9757 H   0  0  0  0  0  0  0  0  0  0  0  0
   -5.6916    0.3978  -20.7665 H   0  0  0  0  0  0  0  0  0  0  0  0
   -8.7493   -0.6830  -22.6716 C   0  0  0  0  0  0  0  0  0  0  0  0
   -6.8451    0.7798  -22.3848 C   0  0  0  0  0  0  0  0  0  0  0  0
   -9.7279   -1.5772  -23.4158 C   0  0  1  0  0  0  0  0  0  0  0  0
  -10.4353    0.1473  -25.8261 O   0  0  0  0  0  0  0  0  0  0  0  0
  -10.9456   -2.2636  -22.8900 N   0  0  0  0  0  0  0  0  0  0  0  0
  -11.9464   -0.3715  -24.0507 C   0  0  3  0  0  0  0  0  0  0  0  0
  -13.6931   -1.8614  -23.0978 C   0  0  0  0  0  0  0  0  0  0  0  0
  -10.9706   -1.3051  -23.5822 C   0  0  3  0  0  0  0  0  0  0  0  0
  -13.5097   -2.5491  -23.9071 H   0  0  0  0  0  0  0  0  0  0  0  0
  -13.3574   -2.3369  -22.1697 H   0  0  0  0  0  0  0  0  0  0  0  0
   -7.6967   -0.1166  -23.2015 C   0  0  0  0  0  0  0  0  0  0  0  0
   -7.3975   -0.2591  -24.2259 H   0  0  0  0  0  0  0  0  0  0  0  0
  -14.7515   -1.6532  -23.0100 H   0  0  0  0  0  0  0  0  0  0  0  0
   -6.3000    0.0207  -21.3558 O   0  0  0  0  0  0  0  0  0  0  0  0
   -7.4643    1.5828  -21.9942 H   0  0  0  0  0  0  0  0  0  0  0  0
   -9.6912   -0.3053  -25.4561 H   0  0  0  0  0  0  0  0  0  0  0  0
   -8.8772   -2.6939  -24.4818 Cl  0  0  0  0  0  0  0  0  0  0  0  0
  -11.0661   -3.1537  -22.6007 H   0  0  0  0  0  0  0  0  0  0  0  0
  -12.2543   -1.0810  -24.8329 H   0  0  0  0  0  0  0  0  0  0  0  0
  -11.0317   -1.9027  -24.5037 H   0  0  0  0  0  0  0  0  0  0  0  0
  5 19  1  0  0  0  0
  7 19  1  0  0  0  0
  4  7  1  0  0  0  0
  7 16  1  0  0  0  0
  7 20  1  0  0  0  0
  2  6  1  0  0  0  0
 10 23  1  0  0  0  0
  8 22  1  0  0  0  0
  6 16  2  0  0  0  0
  6  8  1  0  0  0  0
 16 17  1  0  0  0  0
  8 10  1  0  0  0  0
 10 13  1  0  0  0  0
  8 13  1  0  0  0  0
 12 15  1  0  0  0  0
 11 13  1  0  0  0  0
 12 14  1  0  0  0  0
  1 12  1  0  0  0  0
 12 18  1  0  0  0  0
  9 21  1  0  0  0  0
  1 11  1  0  0  0  0
  3 11  1  0  0  0  0
  3  9  1  0  0  0  0
 11 24  1  0  0  0  0
 13 25  1  0  0  0  0
M  END
> <Chemgauss4>
-5.398784

$$$$
