stable:False satoms:19 tatoms:24 sratio:0.7916666666666666
  -OEChem-08052414393D

 25 25  0     1  0  0  0  0  0999 V2000
   13.0048   -0.6223   23.4133 O   0  0  0  0  0  0  0  0  0  0  0  0
    8.8001   -0.5516   21.8879 H   0  0  0  0  0  0  0  0  0  0  0  0
   11.3745    0.3772   25.1722 C   0  0  0  0  0  2  0  0  0  0  0  0
    5.8889    1.1295   23.4197 H   0  0  0  0  0  0  0  0  0  0  0  0
    5.4261    0.3594   21.2068 H   0  0  0  0  0  0  0  0  0  0  0  0
    8.5868   -0.7502   22.9172 C   0  0  0  0  0  0  0  0  0  0  0  0
    6.6587    0.7025   22.7746 C   0  0  0  0  0  0  0  0  0  0  0  0
    9.6097   -1.6574   23.5818 C   0  0  1  0  0  0  0  0  0  0  0  0
   10.4272   -0.0012   26.0051 O   0  0  0  0  0  0  0  0  0  0  0  0
   10.8039   -2.3157   22.9729 N   0  0  0  0  0  0  0  0  0  0  0  0
   11.8484   -0.4507   24.1389 C   0  0  3  0  0  0  0  0  0  0  0  0
   13.5552   -1.8939   23.0513 C   0  0  0  0  0  0  0  0  0  0  0  0
   10.8571   -1.3787   23.6924 C   0  0  3  0  0  0  0  0  0  0  0  0
   13.4194   -2.6079   23.8470 H   0  0  0  0  0  0  0  0  0  0  0  0
   13.1757   -2.3438   22.1273 H   0  0  0  0  0  0  0  0  0  0  0  0
    7.5585   -0.2104   23.5180 C   0  0  0  0  0  0  0  0  0  0  0  0
    7.3139   -0.3872   24.5516 H   0  0  0  0  0  0  0  0  0  0  0  0
   14.6059   -1.6730   22.9156 H   0  0  0  0  0  0  0  0  0  0  0  0
    6.0671   -0.0297   21.7519 O   0  0  0  0  0  0  0  0  0  0  0  0
    7.2505    1.5230   22.3779 H   0  0  0  0  0  0  0  0  0  0  0  0
    9.6685   -0.4492   25.6600 H   0  0  0  0  0  0  0  0  0  0  0  0
    8.8242   -2.8144   24.6549 Cl  0  0  0  0  0  0  0  0  0  0  0  0
   10.9163   -3.1953   22.6501 H   0  0  0  0  0  0  0  0  0  0  0  0
   12.2021   -1.1809   24.8816 H   0  0  0  0  0  0  0  0  0  0  0  0
   10.9706   -2.0037   24.5904 H   0  0  0  0  0  0  0  0  0  0  0  0
  5 19  1  0  0  0  0
  7 19  1  0  0  0  0
  4  7  1  0  0  0  0
  7 16  1  0  0  0  0
  7 20  1  0  0  0  0
  2  6  1  0  0  0  0
 10 23  1  0  0  0  0
  8 22  1  0  0  0  0
  6 16  2  0  0  0  0
  6  8  1  0  0  0  0
 16 17  1  0  0  0  0
  8 10  1  0  0  0  0
 10 13  1  0  0  0  0
  8 13  1  0  0  0  0
 12 15  1  0  0  0  0
 11 13  1  0  0  0  0
 12 14  1  0  0  0  0
  1 12  1  0  0  0  0
 12 18  1  0  0  0  0
  9 21  1  0  0  0  0
  1 11  1  0  0  0  0
  3 11  1  0  0  0  0
  3  9  1  0  0  0  0
 11 24  1  0  0  0  0
 13 25  1  0  0  0  0
M  END
> <Chemgauss4>
-5.341461

$$$$
