
 OpenBabel07202414163D

 38 39  0  0  0  0  0  0  0  0999 V2000
   -0.9751   -6.1692   -3.1207 C   0  0  0  0  0  0  0  0  0  0  0  0
   -0.5041   -4.9240   -2.4247 C   0  0  0  0  0  0  0  0  0  0  0  0
    0.8019   -4.4658   -2.6189 C   0  0  0  0  0  0  0  0  0  0  0  0
    1.2518   -3.3290   -1.9545 C   0  0  0  0  0  0  0  0  0  0  0  0
    0.3955   -2.6362   -1.0956 C   0  0  0  0  0  0  0  0  0  0  0  0
   -0.9328   -3.0507   -0.8962 C   0  0  0  0  0  0  0  0  0  0  0  0
   -1.7890   -2.2758    0.0992 C   0  0  0  0  0  0  0  0  0  0  0  0
   -3.3252   -2.2921   -0.0900 C   0  0  0  0  0  0  0  0  0  0  0  0
   -3.8072   -1.6029   -1.3676 C   0  0  0  0  0  0  0  0  0  0  0  0
   -3.8137   -0.0744   -1.2844 C   0  0  0  0  0  0  0  0  0  0  0  0
   -4.5086    0.4438   -0.1079 N   0  0  0  0  0  0  0  0  0  0  0  0
   -4.9237    1.7826   -0.1931 C   0  0  0  0  0  0  0  0  0  0  0  0
   -4.8202    2.4254   -1.2432 O   0  0  0  0  0  0  0  0  0  0  0  0
   -5.5411    2.4511    1.0245 C   0  0  0  0  0  0  0  0  0  0  0  0
   -4.2675    3.1165    2.0644 Cl  0  0  0  0  0  0  0  0  0  0  0  0
   -4.1700   -0.1797    1.1670 C   0  0  0  0  0  0  0  0  0  0  0  0
   -4.0791   -1.7041    1.1179 C   0  0  0  0  0  0  0  0  0  0  0  0
   -1.3598   -4.2169   -1.5567 C   0  0  0  0  0  0  0  0  0  0  0  0
   -0.2187   -6.5505   -3.8166 H   0  0  0  0  0  0  0  0  0  0  0  0
   -1.8804   -5.9648   -3.7007 H   0  0  0  0  0  0  0  0  0  0  0  0
   -1.1815   -6.9567   -2.3893 H   0  0  0  0  0  0  0  0  0  0  0  0
    1.4797   -4.9937   -3.2852 H   0  0  0  0  0  0  0  0  0  0  0  0
    2.2753   -2.9897   -2.0963 H   0  0  0  0  0  0  0  0  0  0  0  0
    0.7832   -1.7668   -0.5698 H   0  0  0  0  0  0  0  0  0  0  0  0
   -1.4451   -1.2342    0.1213 H   0  0  0  0  0  0  0  0  0  0  0  0
   -1.5560   -2.7010    1.0856 H   0  0  0  0  0  0  0  0  0  0  0  0
   -3.6314   -3.3439   -0.1496 H   0  0  0  0  0  0  0  0  0  0  0  0
   -4.8317   -1.9335   -1.5711 H   0  0  0  0  0  0  0  0  0  0  0  0
   -3.2060   -1.9070   -2.2331 H   0  0  0  0  0  0  0  0  0  0  0  0
   -4.3007    0.3126   -2.1881 H   0  0  0  0  0  0  0  0  0  0  0  0
   -2.7946    0.3279   -1.2709 H   0  0  0  0  0  0  0  0  0  0  0  0
   -6.1729    1.7660    1.5919 H   0  0  0  0  0  0  0  0  0  0  0  0
   -6.1720    3.2817    0.6908 H   0  0  0  0  0  0  0  0  0  0  0  0
   -4.9262    0.0855    1.9132 H   0  0  0  0  0  0  0  0  0  0  0  0
   -3.2211    0.2547    1.5035 H   0  0  0  0  0  0  0  0  0  0  0  0
   -5.1035   -2.0964    1.0885 H   0  0  0  0  0  0  0  0  0  0  0  0
   -3.6428   -2.0677    2.0569 H   0  0  0  0  0  0  0  0  0  0  0  0
   -2.3610   -4.6073   -1.3965 H   0  0  0  0  0  0  0  0  0  0  0  0
  1  2  1  0  0  0  0
  1 19  1  0  0  0  0
  1 20  1  0  0  0  0
  1 21  1  0  0  0  0
  2  3  1  0  0  0  0
  2 18  2  0  0  0  0
  3  4  2  0  0  0  0
  3 22  1  0  0  0  0
  4  5  1  0  0  0  0
  4 23  1  0  0  0  0
  5  6  2  0  0  0  0
  5 24  1  0  0  0  0
  6  7  1  0  0  0  0
  6 18  1  0  0  0  0
  7  8  1  0  0  0  0
  7 25  1  0  0  0  0
  7 26  1  0  0  0  0
  8  9  1  0  0  0  0
  8 17  1  0  0  0  0
  8 27  1  0  0  0  0
  9 10  1  0  0  0  0
  9 28  1  0  0  0  0
  9 29  1  0  0  0  0
 10 11  1  0  0  0  0
 10 30  1  0  0  0  0
 10 31  1  0  0  0  0
 11 12  1  0  0  0  0
 11 16  1  0  0  0  0
 12 13  2  0  0  0  0
 12 14  1  0  0  0  0
 14 15  1  0  0  0  0
 14 32  1  0  0  0  0
 14 33  1  0  0  0  0
 16 17  1  0  0  0  0
 16 34  1  0  0  0  0
 16 35  1  0  0  0  0
 17 36  1  0  0  0  0
 17 37  1  0  0  0  0
 18 38  1  0  0  0  0
M  END
$$$$
