MODEL 1
REMARK VINA RESULT:    -5.277      0.000      0.000
REMARK INTER + INTRA:          -5.277
REMARK INTER:                  -5.277
REMARK INTRA:                   0.000
REMARK UNBOUND:                 0.000
REMARK  0 active torsions:
REMARK  status: ('A' for Active; 'I' for Inactive)
ROOT
HETATM    1  S   UNL     1       5.247  -5.797  26.527  1.00  0.00    -0.086 SA
HETATM    2  C   UNL     1       5.720  -5.793  22.643  1.00  0.00     0.240 C 
HETATM    3  H   UNL     1       8.316  -6.660  28.028  1.00  0.00     0.159 HD
HETATM    4  H   UNL     1       8.405  -4.094  21.693  1.00  0.00     0.154 HD
HETATM    5  N   UNL     1       7.741  -4.401  22.385  1.00  0.00    -0.405 N 
HETATM    6  C   UNL     1       6.523  -5.639  27.828  1.00  0.00     0.200 C 
HETATM    7  C   UNL     1       7.378  -3.448  23.362  1.00  0.00     0.190 C 
HETATM    8  C   UNL     1       7.135  -5.667  22.096  1.00  0.00     0.218 C 
HETATM    9  N   UNL     1       5.579  -6.100  23.989  1.00  0.00    -0.315 N 
HETATM   10  N   UNL     1       7.858  -5.995  27.412  1.00  0.00    -0.389 N 
HETATM   11  C   UNL     1       8.672  -5.164  26.691  1.00  0.00     0.090 C 
HETATM   12  S   UNL     1       7.003  -3.935  25.125  1.00  0.00    -0.120 SA
HETATM   13  C   UNL     1       5.928  -5.364  25.045  1.00  0.00     0.107 C 
HETATM   14  C   UNL     1       8.467  -4.923  25.414  1.00  0.00     0.059 C 
HETATM   15  O   UNL     1       4.723  -5.687  21.985  1.00  0.00    -0.271 OA
HETATM   16  H   UNL     1       4.931  -6.856  24.236  1.00  0.00     0.170 HD
ENDROOT
TORSDOF 0
ENDMDL
MODEL 2
REMARK VINA RESULT:    -4.826      6.643      7.588
REMARK INTER + INTRA:          -4.826
REMARK INTER:                  -4.826
REMARK INTRA:                   0.000
REMARK UNBOUND:                 0.000
REMARK  0 active torsions:
REMARK  status: ('A' for Active; 'I' for Inactive)
ROOT
HETATM    1  S   UNL     1       8.205  -0.038  20.295  1.00  0.00    -0.086 SA
HETATM    2  C   UNL     1      11.066  -1.243  22.677  1.00  0.00     0.240 C 
HETATM    3  H   UNL     1       5.389   0.779  22.250  1.00  0.00     0.159 HD
HETATM    4  H   UNL     1      11.538   0.815  25.235  1.00  0.00     0.154 HD
HETATM    5  N   UNL     1      11.117   0.566  24.355  1.00  0.00    -0.405 N 
HETATM    6  C   UNL     1       6.748   0.991  20.698  1.00  0.00     0.200 C 
HETATM    7  C   UNL     1      10.946   1.619  23.428  1.00  0.00     0.190 C 
HETATM    8  C   UNL     1      10.988  -0.846  24.144  1.00  0.00     0.218 C 
HETATM    9  N   UNL     1       9.921  -1.084  21.909  1.00  0.00    -0.315 N 
HETATM   10  N   UNL     1       6.371   0.986  22.091  1.00  0.00    -0.389 N 
HETATM   11  C   UNL     1       7.003   1.734  23.048  1.00  0.00     0.090 C 
HETATM   12  S   UNL     1       9.482   1.688  22.271  1.00  0.00    -0.120 SA
HETATM   13  C   UNL     1       9.300   0.049  21.576  1.00  0.00     0.107 C 
HETATM   14  C   UNL     1       8.201   1.425  23.494  1.00  0.00     0.059 C 
HETATM   15  O   UNL     1      12.032  -1.721  22.151  1.00  0.00    -0.271 OA
HETATM   16  H   UNL     1       9.629  -1.876  21.326  1.00  0.00     0.170 HD
ENDROOT
TORSDOF 0
ENDMDL
MODEL 3
REMARK VINA RESULT:    -4.802      4.907      6.171
REMARK INTER + INTRA:          -4.802
REMARK INTER:                  -4.802
REMARK INTRA:                   0.000
REMARK UNBOUND:                 0.000
REMARK  0 active torsions:
REMARK  status: ('A' for Active; 'I' for Inactive)
ROOT
HETATM    1  S   UNL     1      11.081   0.696  23.127  1.00  0.00    -0.086 SA
HETATM    2  C   UNL     1       8.075   0.005  20.721  1.00  0.00     0.240 C 
HETATM    3  H   UNL     1       9.841   0.997  26.412  1.00  0.00     0.159 HD
HETATM    4  H   UNL     1       6.096  -2.417  21.825  1.00  0.00     0.154 HD
HETATM    5  N   UNL     1       6.933  -1.860  21.866  1.00  0.00    -0.405 N 
HETATM    6  C   UNL     1      11.178   0.425  24.933  1.00  0.00     0.200 C 
HETATM    7  C   UNL     1       8.116  -2.541  22.232  1.00  0.00     0.190 C 
HETATM    8  C   UNL     1       6.788  -0.541  21.324  1.00  0.00     0.218 C 
HETATM    9  N   UNL     1       9.017   0.532  21.593  1.00  0.00    -0.315 N 
HETATM   10  N   UNL     1       9.902   0.381  25.607  1.00  0.00    -0.389 N 
HETATM   11  C   UNL     1       9.089  -0.721  25.614  1.00  0.00     0.090 C 
HETATM   12  S   UNL     1       9.454  -1.723  23.246  1.00  0.00    -0.120 SA
HETATM   13  C   UNL     1       9.720  -0.104  22.532  1.00  0.00     0.107 C 
HETATM   14  C   UNL     1       8.407  -1.090  24.552  1.00  0.00     0.059 C 
HETATM   15  O   UNL     1       8.311   0.049  19.546  1.00  0.00    -0.271 OA
HETATM   16  H   UNL     1       9.412   1.451  21.363  1.00  0.00     0.170 HD
ENDROOT
TORSDOF 0
ENDMDL
MODEL 4
REMARK VINA RESULT:    -4.768      6.470      8.362
REMARK INTER + INTRA:          -4.768
REMARK INTER:                  -4.768
REMARK INTRA:                   0.000
REMARK UNBOUND:                 0.000
REMARK  0 active torsions:
REMARK  status: ('A' for Active; 'I' for Inactive)
ROOT
HETATM    1  S   UNL     1      10.318   3.499  24.030  1.00  0.00    -0.086 SA
HETATM    2  C   UNL     1      12.194   0.066  24.085  1.00  0.00     0.240 C 
HETATM    3  H   UNL     1       8.121   3.531  21.275  1.00  0.00     0.159 HD
HETATM    4  H   UNL     1      10.133  -2.512  23.756  1.00  0.00     0.154 HD
HETATM    5  N   UNL     1      10.324  -1.532  23.882  1.00  0.00    -0.405 N 
HETATM    6  C   UNL     1       8.733   3.916  23.218  1.00  0.00     0.200 C 
HETATM    7  C   UNL     1       9.455  -0.838  24.754  1.00  0.00     0.190 C 
HETATM    8  C   UNL     1      11.573  -1.100  23.328  1.00  0.00     0.218 C 
HETATM    9  N   UNL     1      11.704   1.336  23.818  1.00  0.00    -0.315 N 
HETATM   10  N   UNL     1       8.362   3.042  22.131  1.00  0.00    -0.389 N 
HETATM   11  C   UNL     1       7.798   1.807  22.313  1.00  0.00     0.090 C 
HETATM   12  S   UNL     1       8.977   0.943  24.460  1.00  0.00    -0.120 SA
HETATM   13  C   UNL     1      10.485   1.820  24.061  1.00  0.00     0.107 C 
HETATM   14  C   UNL     1       8.495   0.779  22.744  1.00  0.00     0.059 C 
HETATM   15  O   UNL     1      13.102  -0.033  24.862  1.00  0.00    -0.271 OA
HETATM   16  H   UNL     1      12.389   2.077  23.631  1.00  0.00     0.170 HD
ENDROOT
TORSDOF 0
ENDMDL
MODEL 5
REMARK VINA RESULT:    -4.748     29.646     31.250
REMARK INTER + INTRA:          -4.748
REMARK INTER:                  -4.748
REMARK INTRA:                   0.000
REMARK UNBOUND:                 0.000
REMARK  0 active torsions:
REMARK  status: ('A' for Active; 'I' for Inactive)
ROOT
HETATM    1  S   UNL     1      12.226  18.610   4.997  1.00  0.00    -0.086 SA
HETATM    2  C   UNL     1      10.770  15.070   4.189  1.00  0.00     0.240 C 
HETATM    3  H   UNL     1      12.274  20.506   2.026  1.00  0.00     0.159 HD
HETATM    4  H   UNL     1       7.956  15.224   2.440  1.00  0.00     0.154 HD
HETATM    5  N   UNL     1       8.703  15.644   2.968  1.00  0.00    -0.405 N 
HETATM    6  C   UNL     1      12.022  20.165   4.056  1.00  0.00     0.200 C 
HETATM    7  C   UNL     1       8.341  16.721   3.807  1.00  0.00     0.190 C 
HETATM    8  C   UNL     1       9.935  14.912   2.926  1.00  0.00     0.218 C 
HETATM    9  N   UNL     1      11.529  16.225   4.314  1.00  0.00    -0.315 N 
HETATM   10  N   UNL     1      11.677  19.990   2.666  1.00  0.00    -0.389 N 
HETATM   11  C   UNL     1      10.409  19.710   2.231  1.00  0.00     0.090 C 
HETATM   12  S   UNL     1       9.483  18.168   4.104  1.00  0.00    -0.120 SA
HETATM   13  C   UNL     1      11.104  17.484   4.430  1.00  0.00     0.107 C 
HETATM   14  C   UNL     1       9.863  18.525   2.392  1.00  0.00     0.059 C 
HETATM   15  O   UNL     1      10.848  14.249   5.060  1.00  0.00    -0.271 OA
HETATM   16  H   UNL     1      12.512  16.117   4.587  1.00  0.00     0.170 HD
ENDROOT
TORSDOF 0
ENDMDL
MODEL 6
REMARK VINA RESULT:    -4.626      3.552      4.825
REMARK INTER + INTRA:          -4.626
REMARK INTER:                  -4.626
REMARK INTRA:                   0.000
REMARK UNBOUND:                 0.000
REMARK  0 active torsions:
REMARK  status: ('A' for Active; 'I' for Inactive)
ROOT
HETATM    1  S   UNL     1       9.177  -0.479  25.978  1.00  0.00    -0.086 SA
HETATM    2  C   UNL     1       7.598  -3.990  25.277  1.00  0.00     0.240 C 
HETATM    3  H   UNL     1      12.401  -0.396  24.558  1.00  0.00     0.159 HD
HETATM    4  H   UNL     1       7.882  -4.896  22.099  1.00  0.00     0.154 HD
HETATM    5  N   UNL     1       7.967  -4.229  22.848  1.00  0.00    -0.405 N 
HETATM    6  C   UNL     1      10.542   0.352  25.089  1.00  0.00     0.200 C 
HETATM    7  C   UNL     1       7.645  -2.891  22.527  1.00  0.00     0.190 C 
HETATM    8  C   UNL     1       8.177  -4.817  24.138  1.00  0.00     0.218 C 
HETATM    9  N   UNL     1       8.340  -2.903  25.718  1.00  0.00    -0.315 N 
HETATM   10  N   UNL     1      11.415  -0.534  24.358  1.00  0.00    -0.389 N 
HETATM   11  C   UNL     1      11.106  -1.057  23.131  1.00  0.00     0.090 C 
HETATM   12  S   UNL     1       8.543  -1.447  23.300  1.00  0.00    -0.120 SA
HETATM   13  C   UNL     1       8.646  -1.787  25.054  1.00  0.00     0.107 C 
HETATM   14  C   UNL     1      10.212  -2.012  22.986  1.00  0.00     0.059 C 
HETATM   15  O   UNL     1       6.571  -4.235  25.844  1.00  0.00    -0.271 OA
HETATM   16  H   UNL     1       8.484  -2.808  26.730  1.00  0.00     0.170 HD
ENDROOT
TORSDOF 0
ENDMDL
MODEL 7
REMARK VINA RESULT:    -4.584      3.509      5.576
REMARK INTER + INTRA:          -4.584
REMARK INTER:                  -4.584
REMARK INTRA:                   0.000
REMARK UNBOUND:                 0.000
REMARK  0 active torsions:
REMARK  status: ('A' for Active; 'I' for Inactive)
ROOT
HETATM    1  S   UNL     1      10.497  -1.569  23.087  1.00  0.00    -0.086 SA
HETATM    2  C   UNL     1       7.617  -4.153  23.670  1.00  0.00     0.240 C 
HETATM    3  H   UNL     1       9.919   0.081  20.027  1.00  0.00     0.159 HD
HETATM    4  H   UNL     1       4.612  -2.830  23.202  1.00  0.00     0.154 HD
HETATM    5  N   UNL     1       5.613  -2.764  23.289  1.00  0.00    -0.405 N 
HETATM    6  C   UNL     1      10.498  -0.090  22.011  1.00  0.00     0.200 C 
HETATM    7  C   UNL     1       6.104  -1.625  23.964  1.00  0.00     0.190 C 
HETATM    8  C   UNL     1       6.315  -3.954  22.908  1.00  0.00     0.218 C 
HETATM    9  N   UNL     1       8.725  -3.434  23.243  1.00  0.00    -0.315 N 
HETATM   10  N   UNL     1       9.528  -0.120  20.943  1.00  0.00    -0.389 N 
HETATM   11  C   UNL     1       8.200   0.166  21.119  1.00  0.00     0.090 C 
HETATM   12  S   UNL     1       7.709  -0.804  23.478  1.00  0.00    -0.120 SA
HETATM   13  C   UNL     1       8.909  -2.113  23.259  1.00  0.00     0.107 C 
HETATM   14  C   UNL     1       7.383  -0.668  21.723  1.00  0.00     0.059 C 
HETATM   15  O   UNL     1       7.762  -4.916  24.584  1.00  0.00    -0.271 OA
HETATM   16  H   UNL     1       9.603  -3.950  23.114  1.00  0.00     0.170 HD
ENDROOT
TORSDOF 0
ENDMDL
MODEL 8
REMARK VINA RESULT:    -4.538      2.341      4.159
REMARK INTER + INTRA:          -4.538
REMARK INTER:                  -4.538
REMARK INTRA:                   0.000
REMARK UNBOUND:                 0.000
REMARK  0 active torsions:
REMARK  status: ('A' for Active; 'I' for Inactive)
ROOT
HETATM    1  S   UNL     1       4.963  -4.787  23.162  1.00  0.00    -0.086 SA
HETATM    2  C   UNL     1       6.000  -5.902  26.766  1.00  0.00     0.240 C 
HETATM    3  H   UNL     1       5.731  -1.369  22.782  1.00  0.00     0.159 HD
HETATM    4  H   UNL     1       9.074  -4.939  27.557  1.00  0.00     0.154 HD
HETATM    5  N   UNL     1       8.315  -5.056  26.907  1.00  0.00    -0.405 N 
HETATM    6  C   UNL     1       5.561  -3.351  22.199  1.00  0.00     0.200 C 
HETATM    7  C   UNL     1       8.675  -5.420  25.590  1.00  0.00     0.190 C 
HETATM    8  C   UNL     1       7.016  -5.048  27.513  1.00  0.00     0.218 C 
HETATM    9  N   UNL     1       5.410  -5.352  25.637  1.00  0.00    -0.315 N 
HETATM   10  N   UNL     1       6.120  -2.283  22.992  1.00  0.00    -0.389 N 
HETATM   11  C   UNL     1       7.390  -2.306  23.504  1.00  0.00     0.090 C 
HETATM   12  S   UNL     1       7.725  -4.812  24.102  1.00  0.00    -0.120 SA
HETATM   13  C   UNL     1       5.989  -5.019  24.482  1.00  0.00     0.107 C 
HETATM   14  C   UNL     1       7.716  -3.072  24.522  1.00  0.00     0.059 C 
HETATM   15  O   UNL     1       5.645  -6.994  27.109  1.00  0.00    -0.271 OA
HETATM   16  H   UNL     1       4.389  -5.414  25.559  1.00  0.00     0.170 HD
ENDROOT
TORSDOF 0
ENDMDL
MODEL 9
REMARK VINA RESULT:    -4.438     15.721     16.723
REMARK INTER + INTRA:          -4.438
REMARK INTER:                  -4.438
REMARK INTRA:                   0.000
REMARK UNBOUND:                 0.000
REMARK  0 active torsions:
REMARK  status: ('A' for Active; 'I' for Inactive)
ROOT
HETATM    1  S   UNL     1      24.293  -1.807  27.569  1.00  0.00    -0.086 SA
HETATM    2  C   UNL     1      21.721   0.006  25.244  1.00  0.00     0.240 C 
HETATM    3  H   UNL     1      23.366  -5.196  27.837  1.00  0.00     0.159 HD
HETATM    4  H   UNL     1      21.178  -1.648  22.421  1.00  0.00     0.154 HD
HETATM    5  N   UNL     1      21.668  -1.496  23.286  1.00  0.00    -0.405 N 
HETATM    6  C   UNL     1      24.671  -3.593  27.672  1.00  0.00     0.200 C 
HETATM    7  C   UNL     1      23.060  -1.740  23.262  1.00  0.00     0.190 C 
HETATM    8  C   UNL     1      20.888  -0.848  24.299  1.00  0.00     0.218 C 
HETATM    9  N   UNL     1      22.397  -0.645  26.266  1.00  0.00    -0.315 N 
HETATM   10  N   UNL     1      23.626  -4.461  27.186  1.00  0.00    -0.389 N 
HETATM   11  C   UNL     1      23.409  -4.714  25.858  1.00  0.00     0.090 C 
HETATM   12  S   UNL     1      23.966  -2.437  24.739  1.00  0.00    -0.120 SA
HETATM   13  C   UNL     1      23.397  -1.523  26.168  1.00  0.00     0.107 C 
HETATM   14  C   UNL     1      22.874  -3.818  25.057  1.00  0.00     0.059 C 
HETATM   15  O   UNL     1      21.800   1.201  25.192  1.00  0.00    -0.271 OA
HETATM   16  H   UNL     1      22.306  -0.260  27.214  1.00  0.00     0.170 HD
ENDROOT
TORSDOF 0
ENDMDL
