REMARK  0 active torsions:
REMARK  status: ('A' for Active; 'I' for Inactive)
ROOT
HETATM    1  S   UNL     1      10.657   0.570  21.881  1.00  0.00    -0.086 SA
HETATM    2  C   UNL     1       6.831   0.011  21.282  1.00  0.00     0.240 C 
HETATM    3  H   UNL     1      11.432  -0.420  25.173  1.00  0.00     0.159 HD
HETATM    4  H   UNL     1       5.824  -3.001  22.239  1.00  0.00     0.154 HD
HETATM    5  N   UNL     1       6.537  -2.315  22.054  1.00  0.00    -0.405 N 
HETATM    6  C   UNL     1      11.738  -0.210  23.133  1.00  0.00     0.200 C 
HETATM    7  C   UNL     1       7.734  -2.802  21.483  1.00  0.00     0.190 C 
HETATM    8  C   UNL     1       6.099  -0.958  22.200  1.00  0.00     0.218 C 
HETATM    9  N   UNL     1       8.091   0.438  21.677  1.00  0.00    -0.315 N 
HETATM   10  N   UNL     1      11.047  -0.733  24.287  1.00  0.00    -0.389 N 
HETATM   11  C   UNL     1      10.388  -1.933  24.294  1.00  0.00     0.090 C 
HETATM   12  S   UNL     1       9.398  -2.062  21.896  1.00  0.00    -0.120 SA
HETATM   13  C   UNL     1       9.204  -0.285  21.812  1.00  0.00     0.107 C 
HETATM   14  C   UNL     1       9.238  -2.100  23.678  1.00  0.00     0.059 C 
HETATM   15  O   UNL     1       6.379   0.461  20.267  1.00  0.00    -0.271 OA
HETATM   16  H   UNL     1       8.281   1.446  21.642  1.00  0.00     0.170 HD
ENDROOT
TORSDOF 0
