REMARK  3 active torsions:
REMARK  status: ('A' for Active; 'I' for Inactive)
REMARK    1  A    between atoms: C_4  and  C_8 
REMARK    2  A    between atoms: C_4  and  C_5 
REMARK       I    between atoms: C_8  and  N_10 
REMARK    3  A    between atoms: N_10  and  C_12 
ROOT
HETATM    1  C   UNL     1       8.101  -4.406  26.159  1.00  0.00     0.081 C 
HETATM    2  C   UNL     1       8.554  -3.595  25.073  1.00  0.00     0.226 C 
HETATM    3  O   UNL     1       9.159  -3.033  24.340  1.00  0.00    -0.307 OA
ENDROOT
TORSDOF 3
