stable:False satoms:15 tatoms:24 sratio:0.625
  -OEChem-07092417283D

 24 24  0     1  0  0  0  0  0999 V2000
    7.3510   -2.2894   22.8795 O   0  0  0  0  0  0  0  0  0  0  0  0
   10.8584   -0.8776   23.7204 H   0  0  0  0  0  0  0  0  0  0  0  0
    9.0319   -1.0969   21.0436 C   0  0  0  0  0  0  0  0  0  0  0  0
    9.5325   -2.3220   23.0055 N   0  3  0  0  0  0  0  0  0  0  0  0
    8.5769   -3.0493   22.4479 C   0  0  0  0  0  0  0  0  0  0  0  0
    6.6991    0.8868   20.0590 H   0  0  0  0  0  0  0  0  0  0  0  0
    9.7319   -3.7209   24.6194 H   0  0  0  0  0  0  0  0  0  0  0  0
    7.4887    0.5623   20.6800 C   0  5  3  0  0  0  0  0  0  0  0  0
    7.0254   -1.7268   20.5116 O   0  0  0  0  0  0  0  0  0  0  0  0
    7.4202   -1.8605   24.0877 C   0  3  0  0  0  0  0  0  0  0  0  0
    9.4785    1.5680   22.3267 S   0  0  0  0  0  0  0  0  0  0  0  0
   11.2814   -3.2713   23.9957 H   0  0  0  0  0  0  0  0  0  0  0  0
    7.7673   -0.8297   20.7725 C   0  0  0  0  0  0  0  0  0  0  0  0
    9.1927   -3.3095   21.4234 H   0  0  0  0  0  0  0  0  0  0  0  0
   10.0382   -1.5672   24.0093 C   0  0  0  0  0  0  0  0  0  0  0  0
    9.5311   -1.0744   24.8442 H   0  0  0  0  0  0  0  0  0  0  0  0
    8.2558    2.8158   21.1816 C   0  3  0  0  0  0  0  0  0  0  0  0
   10.1478   -1.0479   21.1642 O   0  0  0  0  0  0  0  0  0  0  0  0
    8.2190   -4.0444   22.6167 H   0  0  0  0  0  0  0  0  0  0  0  0
    7.4668   -0.8314   24.2720 H   0  0  0  0  0  0  0  0  0  0  0  0
   10.2388   -2.9611   24.0201 C   0  0  0  0  0  0  0  0  0  0  0  0
    8.3078    1.6074   21.2965 C   0  0  3  0  0  0  0  0  0  0  0  0
    7.3914   -2.5483   24.9118 H   0  0  0  0  0  0  0  0  0  0  0  0
    8.5514    3.6982   21.4072 H   0  0  0  0  0  0  0  0  0  0  0  0
  6  8  1  0  0  0  0
  9 13  2  0  0  0  0
  8 13  1  0  0  0  0
  8 22  1  0  0  0  0
  3 13  1  0  0  0  0
  3 18  1  0  0  0  0
 17 22  1  0  0  0  0
 17 24  1  0  0  0  0
 11 17  1  0  0  0  0
 11 22  1  0  0  0  0
  5 14  1  0  0  0  0
  5 19  1  0  0  0  0
  1  5  1  0  0  0  0
  4  5  1  0  0  0  0
  1 10  1  0  0  0  0
  4 15  1  0  0  0  0
  4 21  1  0  0  0  0
  2 15  1  0  0  0  0
 12 21  1  0  0  0  0
 15 21  1  0  0  0  0
 15 16  1  0  0  0  0
  7 21  1  0  0  0  0
 10 20  1  0  0  0  0
 10 23  1  0  0  0  0
M  CHG  4   4   1   8  -1  10   1  17   1
M  END
> <Shapegauss>
-122.630981

$$$$
