stable:False satoms:8 tatoms:24 sratio:0.3333333333333333
  -OEChem-08062416313D

 47 47  0     1  0  0  0  0  0999 V2000
   -6.7861   -5.2446  -26.0377 C   0  0  0  0  0  0  0  0  0  0  0  0
   -8.2221   -4.6429  -25.8779 S   0  0  0  0  0  0  0  0  0  0  0  0
   -9.2053   -5.7163  -25.8180 O   0  0  0  0  0  0  0  0  0  0  0  0
   -8.5063   -3.7897  -27.0071 O   0  0  0  0  0  0  0  0  0  0  0  0
   -8.2021   -3.8166  -24.4799 N   0  0  0  0  0  0  0  0  0  0  0  0
   -9.0432   -3.0435  -24.0583 C   0  0  0  0  0  0  0  0  0  0  0  0
   -9.4819   -1.9926  -23.4943 C   0  0  0  0  0  0  0  0  0  0  0  0
  -10.3304   -1.0796  -23.4189 C   0  0  2  0  0  0  0  0  0  0  0  0
  -10.9093   -0.0375  -24.5058 C   0  0  0  0  0  0  0  0  0  0  0  0
  -11.9404    0.4020  -24.5556 C   0  0  0  0  0  0  0  0  0  0  0  0
  -13.0579    0.0262  -23.8509 C   0  0  0  0  0  0  0  0  0  0  0  0
  -12.7747   -1.0642  -22.9340 C   0  0  0  0  0  0  0  0  0  0  0  0
  -11.9347   -1.5918  -22.7313 C   0  0  0  0  0  0  0  0  0  0  0  0
   -9.7602   -0.5231  -22.4717 C   0  0  0  0  0  0  0  0  0  0  0  0
   -9.1381    0.0875  -21.5007 C   0  0  0  0  0  0  0  0  0  0  0  0
   -9.6083    1.0904  -21.1911 O   0  0  0  0  0  0  0  0  0  0  0  0
   -8.0529   -0.5618  -21.0856 N   0  0  0  0  0  0  0  0  0  0  0  0
   -7.3779   -0.1026  -20.1429 C   0  0  0  0  0  0  0  0  0  0  0  0
   -7.5125    0.0944  -18.8621 C   0  0  0  0  0  0  0  0  0  0  0  0
   -7.0840    0.4706  -17.7481 N   0  0  0  0  0  0  0  0  0  0  0  0
   -5.9283    0.9180  -18.1743 C   0  0  0  0  0  0  0  0  0  0  0  0
   -5.4155    0.9019  -19.2850 C   0  0  0  0  0  0  0  0  0  0  0  0
   -5.8939    0.4710  -20.4576 C   0  0  0  0  0  0  0  0  0  0  0  0
   -5.3273    0.4775  -21.8550 C   0  0  0  0  0  0  0  0  0  0  0  0
   -6.7315   -5.8212  -26.9729 H   0  0  0  0  0  0  0  0  0  0  0  0
   -6.0482   -4.4293  -26.0662 H   0  0  0  0  0  0  0  0  0  0  0  0
   -6.5690   -5.9060  -25.1860 H   0  0  0  0  0  0  0  0  0  0  0  0
   -7.3584   -3.2808  -24.5135 H   0  0  0  0  0  0  0  0  0  0  0  0
   -9.9596   -3.5531  -24.3169 H   0  0  0  0  0  0  0  0  0  0  0  0
   -8.7842   -1.7927  -22.6945 H   0  0  0  0  0  0  0  0  0  0  0  0
  -11.2445   -1.5362  -23.0115 H   0  0  0  0  0  0  0  0  0  0  0  0
  -10.2219    0.2745  -25.2781 H   0  0  0  0  0  0  0  0  0  0  0  0
  -12.0706    1.2238  -25.2441 H   0  0  0  0  0  0  0  0  0  0  0  0
  -13.8342   -0.2971  -24.5600 H   0  0  0  0  0  0  0  0  0  0  0  0
  -13.4234    0.8896  -23.2756 H   0  0  0  0  0  0  0  0  0  0  0  0
  -13.6306   -1.3738  -22.3528 H   0  0  0  0  0  0  0  0  0  0  0  0
  -11.9565   -2.3788  -21.9920 H   0  0  0  0  0  0  0  0  0  0  0  0
  -11.0168   -1.3675  -23.2544 H   0  0  0  0  0  0  0  0  0  0  0  0
   -9.4200   -1.4974  -22.0907 H   0  0  0  0  0  0  0  0  0  0  0  0
  -10.7317   -0.2721  -22.0209 H   0  0  0  0  0  0  0  0  0  0  0  0
   -7.7795   -1.4157  -21.5285 H   0  0  0  0  0  0  0  0  0  0  0  0
   -8.5171   -0.2424  -18.6527 H   0  0  0  0  0  0  0  0  0  0  0  0
   -5.3220    1.3828  -17.4109 H   0  0  0  0  0  0  0  0  0  0  0  0
   -4.4127    1.3006  -19.3253 H   0  0  0  0  0  0  0  0  0  0  0  0
   -4.7800   -0.4598  -22.0337 H   0  0  0  0  0  0  0  0  0  0  0  0
   -6.1474    0.5675  -22.5826 H   0  0  0  0  0  0  0  0  0  0  0  0
   -4.6413    1.3298  -21.9685 H   0  0  0  0  0  0  0  0  0  0  0  0
 20 21  2  0  0  0  0
 19 20  1  0  0  0  0
 21 22  1  0  0  0  0
 18 19  2  0  0  0  0
 22 23  2  0  0  0  0
 18 23  1  0  0  0  0
 17 18  1  0  0  0  0
 23 24  1  0  0  0  0
 15 16  2  0  0  0  0
 15 17  1  0  0  0  0
 14 15  1  0  0  0  0
  8 14  1  0  0  0  0
 12 13  2  0  0  0  0
 11 12  1  0  0  0  0
  7  8  1  0  0  0  0
  8  9  1  0  0  0  0
 10 11  1  0  0  0  0
  6  7  2  3  0  0  0
  5  6  1  0  0  0  0
  9 10  2  0  0  0  0
  2  5  1  0  0  0  0
  2  3  2  0  0  0  0
  1  2  1  0  0  0  0
  2  4  2  0  0  0  0
  1 25  1  0  0  0  0
  1 26  1  0  0  0  0
  1 27  1  0  0  0  0
  5 28  1  0  0  0  0
  6 29  1  0  0  0  0
  7 30  1  0  0  0  0
  8 31  1  0  0  0  0
  9 32  1  0  0  0  0
 10 33  1  0  0  0  0
 11 34  1  0  0  0  0
 11 35  1  0  0  0  0
 12 36  1  0  0  0  0
 13 37  1  0  0  0  0
 13 38  1  0  0  0  0
 14 39  1  0  0  0  0
 14 40  1  0  0  0  0
 17 41  1  0  0  0  0
 19 42  1  0  0  0  0
 21 43  1  0  0  0  0
 22 44  1  0  0  0  0
 24 45  1  0  0  0  0
 24 46  1  0  0  0  0
 24 47  1  0  0  0  0
M  END
> <Chemgauss4>
-12.830772

$$$$
