stable:False satoms:8 tatoms:24 sratio:0.3333333333333333
  -OEChem-08062416313D

 47 47  0     1  0  0  0  0  0999 V2000
    6.6185   -5.2815   26.0874 C   0  0  0  0  0  0  0  0  0  0  0  0
    8.0545   -4.6798   25.9276 S   0  0  0  0  0  0  0  0  0  0  0  0
    9.0376   -5.7532   25.8677 O   0  0  0  0  0  0  0  0  0  0  0  0
    8.3386   -3.8266   27.0568 O   0  0  0  0  0  0  0  0  0  0  0  0
    8.0344   -3.8536   24.5296 N   0  0  0  0  0  0  0  0  0  0  0  0
    8.8756   -3.0804   24.1079 C   0  0  0  0  0  0  0  0  0  0  0  0
    9.3142   -2.0295   23.5440 C   0  0  0  0  0  0  0  0  0  0  0  0
   10.1628   -1.1165   23.4685 C   0  0  2  0  0  0  0  0  0  0  0  0
   10.7417   -0.0744   24.5555 C   0  0  0  0  0  0  0  0  0  0  0  0
   11.7728    0.3651   24.6053 C   0  0  0  0  0  0  0  0  0  0  0  0
   12.8903   -0.0107   23.9006 C   0  0  0  0  0  0  0  0  0  0  0  0
   12.6071   -1.1011   22.9837 C   0  0  0  0  0  0  0  0  0  0  0  0
   11.7671   -1.6287   22.7810 C   0  0  0  0  0  0  0  0  0  0  0  0
    9.5926   -0.5600   22.5214 C   0  0  0  0  0  0  0  0  0  0  0  0
    8.9705    0.0506   21.5504 C   0  0  0  0  0  0  0  0  0  0  0  0
    9.4407    1.0535   21.2408 O   0  0  0  0  0  0  0  0  0  0  0  0
    7.8853   -0.5987   21.1353 N   0  0  0  0  0  0  0  0  0  0  0  0
    7.2103   -0.1395   20.1926 C   0  0  0  0  0  0  0  0  0  0  0  0
    7.3449    0.0575   18.9118 C   0  0  0  0  0  0  0  0  0  0  0  0
    6.9164    0.4337   17.7978 N   0  0  0  0  0  0  0  0  0  0  0  0
    5.7607    0.8811   18.2240 C   0  0  0  0  0  0  0  0  0  0  0  0
    5.2479    0.8649   19.3347 C   0  0  0  0  0  0  0  0  0  0  0  0
    5.7262    0.4341   20.5073 C   0  0  0  0  0  0  0  0  0  0  0  0
    5.1597    0.4406   21.9047 C   0  0  0  0  0  0  0  0  0  0  0  0
    6.5639   -5.8581   27.0226 H   0  0  0  0  0  0  0  0  0  0  0  0
    5.8805   -4.4662   26.1159 H   0  0  0  0  0  0  0  0  0  0  0  0
    6.4013   -5.9429   25.2357 H   0  0  0  0  0  0  0  0  0  0  0  0
    7.1908   -3.3177   24.5632 H   0  0  0  0  0  0  0  0  0  0  0  0
    9.7920   -3.5900   24.3666 H   0  0  0  0  0  0  0  0  0  0  0  0
    8.6166   -1.8296   22.7442 H   0  0  0  0  0  0  0  0  0  0  0  0
   11.0769   -1.5732   23.0612 H   0  0  0  0  0  0  0  0  0  0  0  0
   10.0542    0.2376   25.3278 H   0  0  0  0  0  0  0  0  0  0  0  0
   11.9030    1.1869   25.2938 H   0  0  0  0  0  0  0  0  0  0  0  0
   13.6666   -0.3340   24.6097 H   0  0  0  0  0  0  0  0  0  0  0  0
   13.2557    0.8527   23.3253 H   0  0  0  0  0  0  0  0  0  0  0  0
   13.4630   -1.4108   22.4025 H   0  0  0  0  0  0  0  0  0  0  0  0
   11.7889   -2.4157   22.0417 H   0  0  0  0  0  0  0  0  0  0  0  0
   10.8492   -1.4045   23.3041 H   0  0  0  0  0  0  0  0  0  0  0  0
    9.2523   -1.5343   22.1404 H   0  0  0  0  0  0  0  0  0  0  0  0
   10.5641   -0.3091   22.0706 H   0  0  0  0  0  0  0  0  0  0  0  0
    7.6119   -1.4526   21.5782 H   0  0  0  0  0  0  0  0  0  0  0  0
    8.3494   -0.2793   18.7024 H   0  0  0  0  0  0  0  0  0  0  0  0
    5.1544    1.3458   17.4606 H   0  0  0  0  0  0  0  0  0  0  0  0
    4.2450    1.2637   19.3750 H   0  0  0  0  0  0  0  0  0  0  0  0
    4.6124   -0.4967   22.0834 H   0  0  0  0  0  0  0  0  0  0  0  0
    5.9798    0.5306   22.6323 H   0  0  0  0  0  0  0  0  0  0  0  0
    4.4737    1.2929   22.0182 H   0  0  0  0  0  0  0  0  0  0  0  0
 20 21  2  0  0  0  0
 19 20  1  0  0  0  0
 21 22  1  0  0  0  0
 18 19  2  0  0  0  0
 22 23  2  0  0  0  0
 18 23  1  0  0  0  0
 17 18  1  0  0  0  0
 23 24  1  0  0  0  0
 15 16  2  0  0  0  0
 15 17  1  0  0  0  0
 14 15  1  0  0  0  0
  8 14  1  0  0  0  0
 12 13  2  0  0  0  0
 11 12  1  0  0  0  0
  7  8  1  0  0  0  0
  8  9  1  0  0  0  0
 10 11  1  0  0  0  0
  6  7  2  3  0  0  0
  5  6  1  0  0  0  0
  9 10  2  0  0  0  0
  2  5  1  0  0  0  0
  2  3  2  0  0  0  0
  1  2  1  0  0  0  0
  2  4  2  0  0  0  0
  1 25  1  0  0  0  0
  1 26  1  0  0  0  0
  1 27  1  0  0  0  0
  5 28  1  0  0  0  0
  6 29  1  0  0  0  0
  7 30  1  0  0  0  0
  8 31  1  0  0  0  0
  9 32  1  0  0  0  0
 10 33  1  0  0  0  0
 11 34  1  0  0  0  0
 11 35  1  0  0  0  0
 12 36  1  0  0  0  0
 13 37  1  0  0  0  0
 13 38  1  0  0  0  0
 14 39  1  0  0  0  0
 14 40  1  0  0  0  0
 17 41  1  0  0  0  0
 19 42  1  0  0  0  0
 21 43  1  0  0  0  0
 22 44  1  0  0  0  0
 24 45  1  0  0  0  0
 24 46  1  0  0  0  0
 24 47  1  0  0  0  0
M  END
> <Chemgauss4>
-12.984494

$$$$
