stable:False satoms:22 tatoms:24 sratio:0.9166666666666666
  -OEChem-07092417343D

 24 23  0     1  0  0  0  0  0999 V2000
    7.7446   -4.0106   26.0103 H   0  0  0  0  0  0  0  0  0  0  0  0
    7.4130   -2.7289   24.0619 O   0  0  0  0  0  0  0  0  0  0  0  0
    8.9224   -4.8671   25.0414 H   0  0  0  0  0  0  0  0  0  0  0  0
    9.4622   -3.6372   26.2231 H   0  0  0  0  0  0  0  0  0  0  0  0
    8.5449   -2.8251   24.4443 C   0  0  0  0  0  0  0  0  0  0  0  0
    8.7156   -3.8842   25.4700 C   0  0  0  0  0  0  0  0  0  0  0  0
    9.7673   -0.6941   23.2262 C   0  0  1  0  0  0  0  0  0  0  0  0
    9.6865   -1.9377   24.0157 C   0  5  3  0  0  0  0  0  0  0  0  0
   11.1995   -0.6174   22.6875 C   0  0  0  0  0  0  0  0  0  0  0  0
    9.6773    0.1544   23.9249 H   0  0  0  0  0  0  0  0  0  0  0  0
   11.9800   -0.5441   23.4488 H   0  0  0  0  0  0  0  0  0  0  0  0
   10.6905   -2.2196   24.3720 H   0  0  0  0  0  0  0  0  0  0  0  0
   11.4029   -1.5055   22.0921 H   0  0  0  0  0  0  0  0  0  0  0  0
   11.2136    0.2515   22.0495 H   0  0  0  0  0  0  0  0  0  0  0  0
    8.7938   -0.4496   22.0219 C   0  0  0  0  0  0  0  0  0  0  0  0
    9.2170   -0.1156   20.9268 O   0  0  0  0  0  0  0  0  0  0  0  0
    6.8980   -0.3435   20.1943 N   0  0  0  0  0  0  0  0  0  0  0  0
    6.7697    0.8990   19.5298 C   0  0  0  0  0  0  0  0  0  0  0  0
    7.3878   -1.0934   19.7621 H   0  0  0  0  0  0  0  0  0  0  0  0
    7.6268    1.5221   19.8125 H   0  0  0  0  0  0  0  0  0  0  0  0
    6.7663    0.8195   18.4380 H   0  0  0  0  0  0  0  0  0  0  0  0
    5.8187    1.3706   19.8317 H   0  0  0  0  0  0  0  0  0  0  0  0
    7.4396   -0.6204   22.2065 N   0  0  0  0  0  0  0  0  0  0  0  0
    6.4461   -0.2131   21.5055 O   0  0  0  0  0  0  0  0  0  0  0  0
 18 21  1  0  0  0  0
 18 20  1  0  0  0  0
 18 22  1  0  0  0  0
 17 18  1  0  0  0  0
 17 19  1  0  0  0  0
 17 24  1  0  0  0  0
 15 16  2  0  0  0  0
 23 24  1  0  0  0  0
 15 23  1  0  0  0  0
  7 15  1  0  0  0  0
  9 14  1  0  0  0  0
  9 13  1  0  0  0  0
  7  9  1  0  0  0  0
  9 11  1  0  0  0  0
  7 10  1  0  0  0  0
  7  8  1  0  0  0  0
  8 12  1  0  0  0  0
  5  8  1  0  0  0  0
  2  5  2  0  0  0  0
  5  6  1  0  0  0  0
  3  6  1  0  0  0  0
  1  6  1  0  0  0  0
  4  6  1  0  0  0  0
M  CHG  1   8  -1
M  END
> <Shapegauss>
-118.633835

$$$$
