stable:False satoms:22 tatoms:24 sratio:0.9166666666666666
  -OEChem-08062400233D

 26 25  0     1  0  0  0  0  0999 V2000
   -7.4792   -2.6441  -24.1553 H   0  0  0  0  0  0  0  0  0  0  0  0
   -8.3004   -0.4394  -24.0363 O   0  0  0  0  0  0  0  0  0  0  0  0
   -8.4224   -2.8925  -22.7033 H   0  0  0  0  0  0  0  0  0  0  0  0
   -9.0498   -3.4515  -24.2827 H   0  0  0  0  0  0  0  0  0  0  0  0
   -9.1218   -1.3115  -23.9994 C   0  0  0  0  0  0  0  0  0  0  0  0
   -8.5265   -2.6504  -23.7631 C   0  0  0  0  0  0  0  0  0  0  0  0
  -11.4181    0.0035  -24.7186 C   0  0  1  0  0  0  0  0  0  0  0  0
  -10.5992   -1.1259  -24.2388 C   0  0  3  0  0  0  0  0  0  0  0  0
  -12.8412   -0.2487  -24.2102 C   0  0  0  0  0  0  0  0  0  0  0  0
  -11.4873   -0.0737  -25.8166 H   0  0  0  0  0  0  0  0  0  0  0  0
  -13.3190   -1.1536  -24.5936 H   0  0  0  0  0  0  0  0  0  0  0  0
  -11.0425   -1.3579  -23.2591 H   0  0  0  0  0  0  0  0  0  0  0  0
  -12.8226   -0.3211  -23.1244 H   0  0  0  0  0  0  0  0  0  0  0  0
  -13.4023    0.6248  -24.5006 H   0  0  0  0  0  0  0  0  0  0  0  0
  -11.0367    1.4785  -24.3488 C   0  0  0  0  0  0  0  0  0  0  0  0
  -11.8623    2.2439  -23.8771 O   0  0  0  0  0  0  0  0  0  0  0  0
   -9.9878    3.7937  -23.6521 N   0  0  0  0  0  0  0  0  0  0  0  0
  -10.5894    4.9303  -24.2420 C   0  0  0  0  0  0  0  0  0  0  0  0
  -10.2250    3.5275  -22.7237 H   0  0  0  0  0  0  0  0  0  0  0  0
  -11.5026    4.6012  -24.7524 H   0  0  0  0  0  0  0  0  0  0  0  0
  -10.8751    5.7042  -23.5224 H   0  0  0  0  0  0  0  0  0  0  0  0
   -9.8780    5.3841  -24.9533 H   0  0  0  0  0  0  0  0  0  0  0  0
   -9.7460    1.9118  -24.5571 N   0  0  0  0  0  0  0  0  0  0  0  0
   -9.2668    3.0995  -24.6210 O   0  0  0  0  0  0  0  0  0  0  0  0
  -10.8404   -1.9297  -24.9500 H   0  0  0  0  0  0  0  0  0  0  0  0
   -9.0735    1.1817  -24.6782 H   0  0  0  0  0  0  0  0  0  0  0  0
 18 21  1  0  0  0  0
 18 20  1  0  0  0  0
 18 22  1  0  0  0  0
 17 18  1  0  0  0  0
 17 19  1  0  0  0  0
 17 24  1  0  0  0  0
 15 16  2  0  0  0  0
 23 24  1  0  0  0  0
 15 23  1  0  0  0  0
  7 15  1  0  0  0  0
  9 14  1  0  0  0  0
  9 13  1  0  0  0  0
  7  9  1  0  0  0  0
  9 11  1  0  0  0  0
  7 10  1  0  0  0  0
  7  8  1  0  0  0  0
  8 12  1  0  0  0  0
  5  8  1  0  0  0  0
  2  5  2  0  0  0  0
  5  6  1  0  0  0  0
  3  6  1  0  0  0  0
  1  6  1  0  0  0  0
  4  6  1  0  0  0  0
  8 25  1  0  0  0  0
 23 26  1  0  0  0  0
M  END
> <Chemgauss4>
-5.002179

$$$$
