stable:False satoms:22 tatoms:24 sratio:0.9166666666666666
  -OEChem-08062400233D

 26 25  0     1  0  0  0  0  0999 V2000
    8.0987   -2.2959   22.6852 H   0  0  0  0  0  0  0  0  0  0  0  0
    9.1503   -0.2003   22.9127 O   0  0  0  0  0  0  0  0  0  0  0  0
    9.3794   -2.6236   21.5397 H   0  0  0  0  0  0  0  0  0  0  0  0
    9.4751   -3.2837   23.1997 H   0  0  0  0  0  0  0  0  0  0  0  0
    9.8513   -1.1615   23.0590 C   0  0  0  0  0  0  0  0  0  0  0  0
    9.2071   -2.4166   22.5980 C   0  0  0  0  0  0  0  0  0  0  0  0
   11.9800   -0.1385   24.4524 C   0  0  1  0  0  0  0  0  0  0  0  0
   11.2132   -1.1546   23.7068 C   0  0  3  0  0  0  0  0  0  0  0  0
   13.4533   -0.5450   24.3448 C   0  0  0  0  0  0  0  0  0  0  0  0
   11.7297   -0.2453   25.5211 H   0  0  0  0  0  0  0  0  0  0  0  0
   13.7051   -1.5070   24.7978 H   0  0  0  0  0  0  0  0  0  0  0  0
   11.8862   -1.4171   22.8773 H   0  0  0  0  0  0  0  0  0  0  0  0
   13.7326   -0.5928   23.2940 H   0  0  0  0  0  0  0  0  0  0  0  0
   14.0001    0.2510   24.8240 H   0  0  0  0  0  0  0  0  0  0  0  0
   11.8772    1.3781   24.0687 C   0  0  0  0  0  0  0  0  0  0  0  0
   12.8786    2.0511   23.8841 O   0  0  0  0  0  0  0  0  0  0  0  0
   11.3188    3.8135   23.2304 N   0  0  0  0  0  0  0  0  0  0  0  0
   11.8482    4.8600   24.0219 C   0  0  0  0  0  0  0  0  0  0  0  0
   11.7772    3.5402   22.3913 H   0  0  0  0  0  0  0  0  0  0  0  0
   12.5410    4.4162   24.7471 H   0  0  0  0  0  0  0  0  0  0  0  0
   12.4051    5.6095   23.4506 H   0  0  0  0  0  0  0  0  0  0  0  0
   11.0184    5.3793   24.5314 H   0  0  0  0  0  0  0  0  0  0  0  0
   10.6336    1.9549   23.9343 N   0  0  0  0  0  0  0  0  0  0  0  0
   10.2852    3.1889   23.9248 O   0  0  0  0  0  0  0  0  0  0  0  0
   11.1581   -1.9952   24.4142 H   0  0  0  0  0  0  0  0  0  0  0  0
    9.8804    1.3061   23.8266 H   0  0  0  0  0  0  0  0  0  0  0  0
 18 21  1  0  0  0  0
 18 20  1  0  0  0  0
 18 22  1  0  0  0  0
 17 18  1  0  0  0  0
 17 19  1  0  0  0  0
 17 24  1  0  0  0  0
 15 16  2  0  0  0  0
 23 24  1  0  0  0  0
 15 23  1  0  0  0  0
  7 15  1  0  0  0  0
  9 14  1  0  0  0  0
  9 13  1  0  0  0  0
  7  9  1  0  0  0  0
  9 11  1  0  0  0  0
  7 10  1  0  0  0  0
  7  8  1  0  0  0  0
  8 12  1  0  0  0  0
  5  8  1  0  0  0  0
  2  5  2  0  0  0  0
  5  6  1  0  0  0  0
  3  6  1  0  0  0  0
  1  6  1  0  0  0  0
  4  6  1  0  0  0  0
  8 25  1  0  0  0  0
 23 26  1  0  0  0  0
M  END
> <Chemgauss4>
-5.218540

$$$$
