REMARK  6 active torsions:
REMARK  status: ('A' for Active; 'I' for Inactive)
REMARK    1  A    between atoms: S_2  and  N_5 
REMARK    2  A    between atoms: N_5  and  C_7 
REMARK    3  A    between atoms: C_8  and  C_9 
REMARK    4  A    between atoms: C_9  and  C_15 
REMARK    5  A    between atoms: C_15  and  C_16 
REMARK       I    between atoms: C_16  and  N_18 
REMARK    6  A    between atoms: N_18  and  C_20 
ROOT
HETATM    1  C   UNL     1      10.332  -1.090  23.298  1.00  0.00     0.076 C 
HETATM    2  C   UNL     1      10.986  -0.036  24.336  1.00  0.00     0.003 C 
HETATM    3  C   UNL     1      12.063   0.286  24.288  1.00  0.00    -0.002 C 
HETATM    4  C   UNL     1      13.149  -0.178  23.461  1.00  0.00    -0.001 C 
HETATM    5  C   UNL     1      12.697  -1.244  22.659  1.00  0.00    -0.002 C 
HETATM    6  C   UNL     1      11.774  -1.736  22.504  1.00  0.00     0.003 C 
ENDROOT
BRANCH   1   7
HETATM    7  C   UNL     1       9.422  -1.942  23.491  1.00  0.00     0.021 C 
HETATM    8  C   UNL     1       8.973  -2.914  24.121  1.00  0.00     0.098 C 
BRANCH   8   9
HETATM    9  N   UNL     1       8.093  -3.567  24.671  1.00  0.00    -0.296 N 
ATOM     10  HN  UNL     1       7.202  -3.646  24.181  1.00  0.00     0.177 HD
BRANCH   9  11
HETATM   11  S   UNL     1       8.211  -4.320  26.108  1.00  0.00     0.226 S 
HETATM   12  C   UNL     1       6.640  -4.828  26.473  1.00  0.00     0.186 C 
HETATM   13  O   UNL     1       9.060  -5.489  26.062  1.00  0.00    -0.206 OA
HETATM   14  O   UNL     1       8.649  -3.418  27.142  1.00  0.00    -0.206 OA
ENDBRANCH   9  11
ENDBRANCH   8   9
ENDBRANCH   1   7
BRANCH   1  15
HETATM   15  C   UNL     1       9.727  -0.576  22.342  1.00  0.00    -0.061 C 
BRANCH  15  16
HETATM   16  C   UNL     1       9.067   0.046  21.375  1.00  0.00     0.290 C 
HETATM   17  O   UNL     1       9.503   1.028  20.987  1.00  0.00    -0.259 OA
HETATM   18  N   UNL     1       7.936  -0.591  21.057  1.00  0.00    -0.315 N 
ATOM     19  HN  UNL     1       7.676  -1.446  21.548  1.00  0.00     0.170 HD
BRANCH  18  20
HETATM   20  C   UNL     1       7.192  -0.133  20.150  1.00  0.00     0.057 A 
HETATM   21  C   UNL     1       7.252  -0.032  18.840  1.00  0.00     0.117 A 
HETATM   22  N   UNL     1       6.794   0.336  17.776  1.00  0.00    -0.373 N 
HETATM   23  C   UNL     1       5.644   0.899  18.215  1.00  0.00     0.088 A 
ATOM     24  HN  UNL     1       7.167   0.247  16.831  1.00  0.00     0.164 HD
HETATM   25  C   UNL     1       5.264   0.965  19.435  1.00  0.00     0.026 A 
HETATM   26  C   UNL     1       5.818   0.564  20.526  1.00  0.00    -0.033 A 
HETATM   27  C   UNL     1       5.337   0.682  21.980  1.00  0.00     0.050 C 
ENDBRANCH  18  20
ENDBRANCH  15  16
ENDBRANCH   1  15
TORSDOF 6
