stable:False satoms:16 tatoms:24 sratio:0.6666666666666666
  -OEChem-07092417343D

 24 24  0     0  0  0  0  0  0999 V2000
    8.9796   -4.3919   25.2885 C   0  0  0  0  0  0  0  0  0  0  0  0
    8.5933   -3.0533   25.5160 N   0  0  0  0  0  0  0  0  0  0  0  0
    9.5134   -5.3354   25.6392 O   0  0  0  0  0  0  0  0  0  0  0  0
    9.1347   -2.7268   26.3001 H   0  0  0  0  0  0  0  0  0  0  0  0
    8.8028   -3.3295   24.3486 C   0  0  0  0  0  0  0  0  0  0  0  0
    8.9467   -3.0758   23.1744 O   0  0  0  0  0  0  0  0  0  0  0  0
    9.2681   -0.6986   22.9250 N   0  0  0  0  0  0  0  0  0  0  0  0
   10.5487   -0.8757   23.3322 C   0  0  0  0  0  0  0  0  0  0  0  0
   10.2730   -0.1226   25.3570 H   0  0  0  0  0  0  0  0  0  0  0  0
   10.9868   -0.3160   24.5960 C   0  5  0  0  0  0  0  0  0  0  0  0
   12.0276   -0.1005   24.7313 H   0  0  0  0  0  0  0  0  0  0  0  0
   11.4404   -1.5099   22.7119 O   0  0  0  0  0  0  0  0  0  0  0  0
   10.5109   -1.1872   21.0529 H   0  0  0  0  0  0  0  0  0  0  0  0
    8.7369   -0.5621   20.5236 C   0  0  0  0  0  0  0  0  0  0  0  0
    9.9621   -0.8825   20.2591 O   0  0  0  0  0  0  0  0  0  0  0  0
    8.4398   -0.3129   21.8408 C   0  0  0  0  0  0  0  0  0  0  0  0
    7.1435    0.1982   22.0193 C   0  0  0  0  0  0  0  0  0  0  0  0
    5.2645    0.7935   21.2264 H   0  0  0  0  0  0  0  0  0  0  0  0
    7.7237   -0.3843   19.4312 C   0  0  0  0  0  0  0  0  0  0  0  0
    5.7488    0.1981   18.9043 H   0  0  0  0  0  0  0  0  0  0  0  0
    7.9934   -0.5555   18.3988 H   0  0  0  0  0  0  0  0  0  0  0  0
    6.4879    0.0587   19.6908 C   0  0  0  0  0  0  0  0  0  0  0  0
    6.2149    0.3710   21.0179 C   0  0  0  0  0  0  0  0  0  0  0  0
    6.8425    0.5109   23.0116 H   0  0  0  0  0  0  0  0  0  0  0  0
 19 21  1  0  0  0  0
 20 22  1  0  0  0  0
 19 22  2  0  0  0  0
 14 19  1  0  0  0  0
 22 23  1  0  0  0  0
 14 15  1  0  0  0  0
 13 15  1  0  0  0  0
 14 16  2  0  0  0  0
 18 23  1  0  0  0  0
 17 23  2  0  0  0  0
 16 17  1  0  0  0  0
  7 16  1  0  0  0  0
 17 24  1  0  0  0  0
  8 12  2  0  0  0  0
  7  8  1  0  0  0  0
  5  6  2  0  0  0  0
  8 10  1  0  0  0  0
  1  5  1  0  0  0  0
  2  5  1  0  0  0  0
 10 11  1  0  0  0  0
  9 10  1  0  0  0  0
  1  2  1  0  0  0  0
  1  3  2  0  0  0  0
  2  4  1  0  0  0  0
M  CHG  1  10  -1
M  END
> <Shapegauss>
-161.647934

$$$$
