REMARK  2 active torsions:
REMARK  status: ('A' for Active; 'I' for Inactive)
REMARK    1  A    between atoms: N_7  and  C_15 
REMARK       I    between atoms: N_7  and  C_9 
REMARK    2  A    between atoms: C_13  and  O_14 
ROOT
HETATM    1  C   UNL     1       8.980  -4.392  25.288  1.00  0.00     0.290 A 
HETATM    2  N   UNL     1       8.593  -3.053  25.516  1.00  0.00    -0.182 NA
HETATM    3  O   UNL     1       9.513  -5.335  25.639  1.00  0.00    -0.269 OA
HETATM    4  H   UNL     1       9.135  -2.727  26.300  1.00  0.00     0.140 HD
HETATM    5  C   UNL     1       8.803  -3.329  24.349  1.00  0.00     0.290 A 
HETATM    6  O   UNL     1       8.947  -3.076  23.174  1.00  0.00    -0.269 OA
ENDROOT
TORSDOF 2
