stable:False satoms:9 tatoms:24 sratio:0.375
  -OEChem-07092417493D

 24 25  0     1  0  0  0  0  0999 V2000
    6.6204   -4.8866   26.4417 C   0  0  0  0  0  0  0  0  0  0  0  0
    8.1731   -4.3187   26.0932 S   0  0  0  0  0  0  0  0  0  0  0  0
    9.0661   -5.4612   26.0462 O   0  0  0  0  0  0  0  0  0  0  0  0
    8.5315   -3.4267   27.1506 O   0  0  0  0  0  0  0  0  0  0  0  0
    8.0722   -3.5931   24.6923 N   0  0  0  0  0  0  0  0  0  0  0  0
    9.0090   -2.9044   24.1269 C   0  0  0  0  0  0  0  0  0  0  0  0
    9.4323   -1.9675   23.5132 C   0  0  0  0  0  0  0  0  0  0  0  0
   10.3389   -1.1005   23.2920 C   0  0  1  0  0  0  0  0  0  0  0  0
   11.0497   -0.0536   24.2610 C   0  0  0  0  0  0  0  0  0  0  0  0
   12.0804    0.2587   24.2713 C   0  0  0  0  0  0  0  0  0  0  0  0
   13.1784   -0.1396   23.5262 C   0  0  0  0  0  0  0  0  0  0  0  0
   12.7358   -1.2987   22.6176 C   0  0  0  0  0  0  0  0  0  0  0  0
   11.8061   -1.7312   22.5098 C   0  0  0  0  0  0  0  0  0  0  0  0
    9.7461   -0.5492   22.3267 C   0  0  0  0  0  0  0  0  0  0  0  0
    9.0649    0.0566   21.3896 C   0  0  0  0  0  0  0  0  0  0  0  0
    9.5525    0.9944   20.9899 O   0  0  0  0  0  0  0  0  0  0  0  0
    7.9336   -0.5527   21.0812 N   0  0  0  0  0  0  0  0  0  0  0  0
    7.1711   -0.0783   20.1783 C   0  0  0  0  0  0  0  0  0  0  0  0
    7.2357    0.0170   18.8470 C   0  0  0  0  0  0  0  0  0  0  0  0
    6.7719    0.3066   17.7703 N   0  0  0  0  0  0  0  0  0  0  0  0
    5.6005    0.9131   18.2038 C   0  0  0  0  0  0  0  0  0  0  0  0
    5.2737    0.9697   19.3933 C   0  0  0  0  0  0  0  0  0  0  0  0
    5.8259    0.5628   20.5484 C   0  0  0  0  0  0  0  0  0  0  0  0
    5.3140    0.6930   22.0262 C   0  0  0  0  0  0  0  0  0  0  0  0
 20 21  2  0  0  0  0
 19 20  1  0  0  0  0
 21 22  1  0  0  0  0
 18 19  2  0  0  0  0
 22 23  2  0  0  0  0
 18 23  1  0  0  0  0
 17 18  1  0  0  0  0
 23 24  1  0  0  0  0
 15 16  2  0  0  0  0
 15 17  1  0  0  0  0
 14 15  1  0  0  0  0
  8 14  1  0  0  0  0
 12 13  1  0  0  0  0
  8 13  1  0  0  0  0
 11 12  2  0  0  0  0
  7  8  1  0  0  0  0
  8  9  1  0  0  0  0
  6  7  2  3  0  0  0
 10 11  1  0  0  0  0
  5  6  1  0  0  0  0
  9 10  2  0  0  0  0
  2  5  1  0  0  0  0
  2  3  2  0  0  0  0
  1  2  1  0  0  0  0
  2  4  2  0  0  0  0
M  END
> <Shapegauss>
-285.962311

$$$$
