stable:False satoms:9 tatoms:24 sratio:0.375
  -OEChem-08062417333D

 45 46  0     1  0  0  0  0  0999 V2000
   -6.1229   -5.1645  -26.0477 C   0  0  0  0  0  0  0  0  0  0  0  0
   -7.7078   -4.6021  -25.8845 S   0  0  0  0  0  0  0  0  0  0  0  0
   -8.5902   -5.7537  -25.8648 O   0  0  0  0  0  0  0  0  0  0  0  0
   -7.9681   -3.7718  -27.0181 O   0  0  0  0  0  0  0  0  0  0  0  0
   -7.7531   -3.8031  -24.5212 N   0  0  0  0  0  0  0  0  0  0  0  0
   -8.7478   -3.0998  -24.0882 C   0  0  0  0  0  0  0  0  0  0  0  0
   -9.2387   -2.1385  -23.5700 C   0  0  0  0  0  0  0  0  0  0  0  0
  -10.1710   -1.2746  -23.4857 C   0  0  1  0  0  0  0  0  0  0  0  0
  -10.7921   -0.2902  -24.5743 C   0  0  0  0  0  0  0  0  0  0  0  0
  -11.8197    0.0060  -24.7027 C   0  0  0  0  0  0  0  0  0  0  0  0
  -12.9823   -0.3691  -24.0491 C   0  0  0  0  0  0  0  0  0  0  0  0
  -12.6209   -1.4726  -23.0409 C   0  0  0  0  0  0  0  0  0  0  0  0
  -11.7024   -1.8852  -22.8192 C   0  0  0  0  0  0  0  0  0  0  0  0
   -9.6820   -0.6651  -22.4974 C   0  0  0  0  0  0  0  0  0  0  0  0
   -9.1028   -0.0014  -21.5314 C   0  0  0  0  0  0  0  0  0  0  0  0
   -9.6365    0.9487  -21.2322 O   0  0  0  0  0  0  0  0  0  0  0  0
   -8.0019   -0.5771  -21.0811 N   0  0  0  0  0  0  0  0  0  0  0  0
   -7.3371   -0.0451  -20.1341 C   0  0  0  0  0  0  0  0  0  0  0  0
   -7.5342    0.1185  -18.8226 C   0  0  0  0  0  0  0  0  0  0  0  0
   -7.1822    0.4705  -17.7225 N   0  0  0  0  0  0  0  0  0  0  0  0
   -5.9794    1.0708  -18.0702 C   0  0  0  0  0  0  0  0  0  0  0  0
   -5.5369    1.0702  -19.2231 C   0  0  0  0  0  0  0  0  0  0  0  0
   -5.9680    0.5956  -20.4036 C   0  0  0  0  0  0  0  0  0  0  0  0
   -5.3135    0.6561  -21.8287 C   0  0  0  0  0  0  0  0  0  0  0  0
   -6.0294   -5.7323  -26.9852 H   0  0  0  0  0  0  0  0  0  0  0  0
   -5.4308   -4.3098  -26.0663 H   0  0  0  0  0  0  0  0  0  0  0  0
   -5.8763   -5.8175  -25.1975 H   0  0  0  0  0  0  0  0  0  0  0  0
   -6.9811   -3.1689  -24.5625 H   0  0  0  0  0  0  0  0  0  0  0  0
   -9.6035   -3.7161  -24.3216 H   0  0  0  0  0  0  0  0  0  0  0  0
   -8.5483   -1.8712  -22.7837 H   0  0  0  0  0  0  0  0  0  0  0  0
  -10.0902    0.1361  -25.2758 H   0  0  0  0  0  0  0  0  0  0  0  0
  -11.9724    0.7313  -25.4881 H   0  0  0  0  0  0  0  0  0  0  0  0
  -13.9672    0.0407  -24.2177 H   0  0  0  0  0  0  0  0  0  0  0  0
  -13.4528   -1.8753  -22.4821 H   0  0  0  0  0  0  0  0  0  0  0  0
  -11.6007   -1.8247  -21.7256 H   0  0  0  0  0  0  0  0  0  0  0  0
  -11.7644   -2.9404  -23.1238 H   0  0  0  0  0  0  0  0  0  0  0  0
   -9.6584   -1.5926  -21.9066 H   0  0  0  0  0  0  0  0  0  0  0  0
  -10.6327   -0.1412  -22.3197 H   0  0  0  0  0  0  0  0  0  0  0  0
   -7.6888   -1.4359  -21.4866 H   0  0  0  0  0  0  0  0  0  0  0  0
   -8.5309   -0.2656  -18.6628 H   0  0  0  0  0  0  0  0  0  0  0  0
   -5.4050    1.5603  -17.2977 H   0  0  0  0  0  0  0  0  0  0  0  0
   -4.5809    1.5666  -19.3003 H   0  0  0  0  0  0  0  0  0  0  0  0
   -4.6892   -0.2361  -21.9842 H   0  0  0  0  0  0  0  0  0  0  0  0
   -6.1032    0.6888  -22.5937 H   0  0  0  0  0  0  0  0  0  0  0  0
   -4.6893    1.5585  -21.9073 H   0  0  0  0  0  0  0  0  0  0  0  0
 20 21  2  0  0  0  0
 19 20  1  0  0  0  0
 21 22  1  0  0  0  0
 18 19  2  0  0  0  0
 22 23  2  0  0  0  0
 18 23  1  0  0  0  0
 17 18  1  0  0  0  0
 23 24  1  0  0  0  0
 15 16  2  0  0  0  0
 15 17  1  0  0  0  0
 14 15  1  0  0  0  0
  8 14  1  0  0  0  0
 12 13  1  0  0  0  0
  8 13  1  0  0  0  0
 11 12  2  0  0  0  0
  7  8  1  0  0  0  0
  8  9  1  0  0  0  0
  6  7  2  3  0  0  0
 10 11  1  0  0  0  0
  5  6  1  0  0  0  0
  9 10  2  0  0  0  0
  2  5  1  0  0  0  0
  2  3  2  0  0  0  0
  1  2  1  0  0  0  0
  2  4  2  0  0  0  0
  1 25  1  0  0  0  0
  1 26  1  0  0  0  0
  1 27  1  0  0  0  0
  5 28  1  0  0  0  0
  6 29  1  0  0  0  0
  7 30  1  0  0  0  0
  9 31  1  0  0  0  0
 10 32  1  0  0  0  0
 11 33  1  0  0  0  0
 12 34  1  0  0  0  0
 13 35  1  0  0  0  0
 13 36  1  0  0  0  0
 14 37  1  0  0  0  0
 14 38  1  0  0  0  0
 17 39  1  0  0  0  0
 19 40  1  0  0  0  0
 21 41  1  0  0  0  0
 22 42  1  0  0  0  0
 24 43  1  0  0  0  0
 24 44  1  0  0  0  0
 24 45  1  0  0  0  0
M  END
> <Chemgauss4>
-13.416345

$$$$
