stable:False satoms:9 tatoms:24 sratio:0.375
  -OEChem-08062417343D

 45 46  0     1  0  0  0  0  0999 V2000
    5.9306   -5.1847   25.8257 C   0  0  0  0  0  0  0  0  0  0  0  0
    7.5155   -4.6223   25.6625 S   0  0  0  0  0  0  0  0  0  0  0  0
    8.3978   -5.7739   25.6428 O   0  0  0  0  0  0  0  0  0  0  0  0
    7.7758   -3.7920   26.7961 O   0  0  0  0  0  0  0  0  0  0  0  0
    7.5608   -3.8233   24.2991 N   0  0  0  0  0  0  0  0  0  0  0  0
    8.5555   -3.1200   23.8662 C   0  0  0  0  0  0  0  0  0  0  0  0
    9.0464   -2.1587   23.3480 C   0  0  0  0  0  0  0  0  0  0  0  0
    9.9786   -1.2948   23.2636 C   0  0  1  0  0  0  0  0  0  0  0  0
   10.5998   -0.3104   24.3523 C   0  0  0  0  0  0  0  0  0  0  0  0
   11.6273   -0.0142   24.4807 C   0  0  0  0  0  0  0  0  0  0  0  0
   12.7899   -0.3893   23.8271 C   0  0  0  0  0  0  0  0  0  0  0  0
   12.4286   -1.4928   22.8189 C   0  0  0  0  0  0  0  0  0  0  0  0
   11.5101   -1.9054   22.5972 C   0  0  0  0  0  0  0  0  0  0  0  0
    9.4897   -0.6853   22.2754 C   0  0  0  0  0  0  0  0  0  0  0  0
    8.9104   -0.0216   21.3094 C   0  0  0  0  0  0  0  0  0  0  0  0
    9.4441    0.9285   21.0102 O   0  0  0  0  0  0  0  0  0  0  0  0
    7.8095   -0.5973   20.8591 N   0  0  0  0  0  0  0  0  0  0  0  0
    7.1448   -0.0653   19.9121 C   0  0  0  0  0  0  0  0  0  0  0  0
    7.3419    0.0983   18.6006 C   0  0  0  0  0  0  0  0  0  0  0  0
    6.9898    0.4503   17.5005 N   0  0  0  0  0  0  0  0  0  0  0  0
    5.7871    1.0506   17.8482 C   0  0  0  0  0  0  0  0  0  0  0  0
    5.3446    1.0500   19.0011 C   0  0  0  0  0  0  0  0  0  0  0  0
    5.7757    0.5754   20.1816 C   0  0  0  0  0  0  0  0  0  0  0  0
    5.1211    0.6359   21.6067 C   0  0  0  0  0  0  0  0  0  0  0  0
    5.8371   -5.7525   26.7632 H   0  0  0  0  0  0  0  0  0  0  0  0
    5.2384   -4.3300   25.8443 H   0  0  0  0  0  0  0  0  0  0  0  0
    5.6840   -5.8377   24.9755 H   0  0  0  0  0  0  0  0  0  0  0  0
    6.7888   -3.1891   24.3405 H   0  0  0  0  0  0  0  0  0  0  0  0
    9.4111   -3.7363   24.0995 H   0  0  0  0  0  0  0  0  0  0  0  0
    8.3560   -1.8914   22.5616 H   0  0  0  0  0  0  0  0  0  0  0  0
    9.8979    0.1159   25.0537 H   0  0  0  0  0  0  0  0  0  0  0  0
   11.7800    0.7111   25.2661 H   0  0  0  0  0  0  0  0  0  0  0  0
   13.7749    0.0205   23.9957 H   0  0  0  0  0  0  0  0  0  0  0  0
   13.2604   -1.8955   22.2601 H   0  0  0  0  0  0  0  0  0  0  0  0
   11.4084   -1.8449   21.5036 H   0  0  0  0  0  0  0  0  0  0  0  0
   11.5720   -2.9606   22.9018 H   0  0  0  0  0  0  0  0  0  0  0  0
    9.4661   -1.6129   21.6846 H   0  0  0  0  0  0  0  0  0  0  0  0
   10.4404   -0.1614   22.0977 H   0  0  0  0  0  0  0  0  0  0  0  0
    7.4964   -1.4561   21.2646 H   0  0  0  0  0  0  0  0  0  0  0  0
    8.3386   -0.2858   18.4408 H   0  0  0  0  0  0  0  0  0  0  0  0
    5.2127    1.5401   17.0757 H   0  0  0  0  0  0  0  0  0  0  0  0
    4.3885    1.5464   19.0783 H   0  0  0  0  0  0  0  0  0  0  0  0
    4.4968   -0.2563   21.7622 H   0  0  0  0  0  0  0  0  0  0  0  0
    5.9109    0.6686   22.3717 H   0  0  0  0  0  0  0  0  0  0  0  0
    4.4969    1.5383   21.6853 H   0  0  0  0  0  0  0  0  0  0  0  0
 20 21  2  0  0  0  0
 19 20  1  0  0  0  0
 21 22  1  0  0  0  0
 18 19  2  0  0  0  0
 22 23  2  0  0  0  0
 18 23  1  0  0  0  0
 17 18  1  0  0  0  0
 23 24  1  0  0  0  0
 15 16  2  0  0  0  0
 15 17  1  0  0  0  0
 14 15  1  0  0  0  0
  8 14  1  0  0  0  0
 12 13  1  0  0  0  0
  8 13  1  0  0  0  0
 11 12  2  0  0  0  0
  7  8  1  0  0  0  0
  8  9  1  0  0  0  0
  6  7  2  3  0  0  0
 10 11  1  0  0  0  0
  5  6  1  0  0  0  0
  9 10  2  0  0  0  0
  2  5  1  0  0  0  0
  2  3  2  0  0  0  0
  1  2  1  0  0  0  0
  2  4  2  0  0  0  0
  1 25  1  0  0  0  0
  1 26  1  0  0  0  0
  1 27  1  0  0  0  0
  5 28  1  0  0  0  0
  6 29  1  0  0  0  0
  7 30  1  0  0  0  0
  9 31  1  0  0  0  0
 10 32  1  0  0  0  0
 11 33  1  0  0  0  0
 12 34  1  0  0  0  0
 13 35  1  0  0  0  0
 13 36  1  0  0  0  0
 14 37  1  0  0  0  0
 14 38  1  0  0  0  0
 17 39  1  0  0  0  0
 19 40  1  0  0  0  0
 21 41  1  0  0  0  0
 22 42  1  0  0  0  0
 24 43  1  0  0  0  0
 24 44  1  0  0  0  0
 24 45  1  0  0  0  0
M  END
> <Chemgauss4>
-12.920183

$$$$
