
 OpenBabel07202414123D

 70 73  0  0  1  0  0  0  0  0999 V2000
    5.3533    0.6759    2.0234 C   0  0  0  0  0  0  0  0  0  0  0  0
    5.3695    2.2216    2.1386 C   0  0  0  0  0  0  0  0  0  0  0  0
    4.4417    2.6628    3.2831 C   0  0  0  0  0  0  0  0  0  0  0  0
    6.8250    2.5996    2.5129 C   0  0  0  0  0  0  0  0  0  0  0  0
    4.8620    2.9021    0.8560 C   0  0  0  0  0  0  0  0  0  0  0  0
    3.9407    2.2669    0.0028 C   0  0  0  0  0  0  0  0  0  0  0  0
    3.5550    2.8195   -1.2272 C   0  0  0  0  0  0  0  0  0  0  0  0
    4.0442    4.0655   -1.6120 C   0  0  0  0  0  0  0  0  0  0  0  0
    3.8843    4.5184   -2.9671 N   0  0  0  0  0  0  0  0  0  0  0  0
    5.1172    4.4948   -3.8610 C   0  0  3  0  0  0  0  0  0  0  0  0
    6.2311    5.3957   -3.2531 C   0  0  0  0  0  0  0  0  0  0  0  0
    7.0670    5.0017   -2.4379 O   0  0  0  0  0  0  0  0  0  0  0  0
    6.1434    6.7421   -3.5972 N   0  0  0  0  0  0  0  0  0  0  0  0
    7.0700    7.7047   -3.0110 C   0  0  0  0  0  0  0  0  0  0  0  0
    6.8507    9.1468   -3.5334 C   0  0  0  0  0  0  0  0  0  0  0  0
    7.7715   10.1676   -2.9805 N   0  0  0  0  0  0  0  0  0  0  0  0
    7.5190   11.5180   -3.5535 C   0  0  0  0  0  0  0  0  0  0  0  0
    7.9530   11.6860   -5.0284 C   0  0  0  0  0  0  0  0  0  0  0  0
    9.2897   11.2209   -5.2757 O   0  0  0  0  0  0  0  0  0  0  0  0
    9.4805    9.8924   -4.7729 C   0  0  0  0  0  0  0  0  0  0  0  0
    9.1933    9.8653   -3.2644 C   0  0  0  0  0  0  0  0  0  0  0  0
    5.6039    3.0972   -4.2897 C   0  0  0  0  0  0  0  0  0  0  0  0
    6.0852    2.1404   -3.3905 C   0  0  0  0  0  0  0  0  0  0  0  0
    6.2531    0.8098   -3.7760 C   0  0  0  0  0  0  0  0  0  0  0  0
    6.0193    0.4725   -5.1068 C   0  0  0  0  0  0  0  0  0  0  0  0
    5.7208    1.4037   -6.0432 N   0  0  0  0  0  0  0  0  0  0  0  0
    5.5328    2.6704   -5.6223 C   0  0  0  0  0  0  0  0  0  0  0  0
    2.7214    5.1852   -3.4338 C   0  0  0  0  0  0  0  0  0  0  0  0
    2.6354    5.5505   -4.6049 O   0  0  0  0  0  0  0  0  0  0  0  0
    1.6397    5.4948   -2.4680 C   0  0  0  0  0  0  0  0  0  0  0  0
    0.2690    5.6771   -2.6163 C   0  0  0  0  0  0  0  0  0  0  0  0
   -0.2203    6.1652   -1.3723 C   0  0  0  0  0  0  0  0  0  0  0  0
    0.8599    6.1944   -0.5272 C   0  0  0  0  0  0  0  0  0  0  0  0
    1.9766    5.8077   -1.1804 O   0  0  0  0  0  0  0  0  0  0  0  0
    4.7568    4.8071   -0.6654 C   0  0  0  0  0  0  0  0  0  0  0  0
    5.2138    4.2161    0.5200 C   0  0  0  0  0  0  0  0  0  0  0  0
    5.7429    0.1985    2.9307 H   0  0  0  0  0  0  0  0  0  0  0  0
    5.9688    0.3370    1.1808 H   0  0  0  0  0  0  0  0  0  0  0  0
    4.3440    0.2771    1.8804 H   0  0  0  0  0  0  0  0  0  0  0  0
    4.7113    2.1828    4.2300 H   0  0  0  0  0  0  0  0  0  0  0  0
    3.3969    2.4140    3.0643 H   0  0  0  0  0  0  0  0  0  0  0  0
    4.4925    3.7482    3.4344 H   0  0  0  0  0  0  0  0  0  0  0  0
    7.1533    2.0538    3.4059 H   0  0  0  0  0  0  0  0  0  0  0  0
    6.9375    3.6635    2.7448 H   0  0  0  0  0  0  0  0  0  0  0  0
    7.5242    2.3539    1.7053 H   0  0  0  0  0  0  0  0  0  0  0  0
    3.5136    1.3039    0.2659 H   0  0  0  0  0  0  0  0  0  0  0  0
    2.9065    2.2468   -1.8776 H   0  0  0  0  0  0  0  0  0  0  0  0
    4.8441    4.9885   -4.8037 H   0  0  0  0  0  0  0  0  0  0  0  0
    5.7525    6.9525   -4.5074 H   0  0  0  0  0  0  0  0  0  0  0  0
    8.0725    7.3414   -3.2586 H   0  0  0  0  0  0  0  0  0  0  0  0
    6.9619    7.6662   -1.9195 H   0  0  0  0  0  0  0  0  0  0  0  0
    5.8187    9.4419   -3.3075 H   0  0  0  0  0  0  0  0  0  0  0  0
    6.9035    9.1123   -4.6268 H   0  0  0  0  0  0  0  0  0  0  0  0
    8.0961   12.2363   -2.9536 H   0  0  0  0  0  0  0  0  0  0  0  0
    6.4692   11.8076   -3.4293 H   0  0  0  0  0  0  0  0  0  0  0  0
    7.9323   12.7487   -5.2966 H   0  0  0  0  0  0  0  0  0  0  0  0
    7.2674   11.1657   -5.7049 H   0  0  0  0  0  0  0  0  0  0  0  0
   10.5131    9.5912   -4.9679 H   0  0  0  0  0  0  0  0  0  0  0  0
    8.8454    9.2017   -5.3379 H   0  0  0  0  0  0  0  0  0  0  0  0
    9.8085   10.6332   -2.7749 H   0  0  0  0  0  0  0  0  0  0  0  0
    9.4916    8.9175   -2.8075 H   0  0  0  0  0  0  0  0  0  0  0  0
    6.3015    2.4105   -2.3587 H   0  0  0  0  0  0  0  0  0  0  0  0
    6.5120    0.0461   -3.0621 H   0  0  0  0  0  0  0  0  0  0  0  0
    6.0530   -0.5606   -5.4438 H   0  0  0  0  0  0  0  0  0  0  0  0
    5.2906    3.3526   -6.4370 H   0  0  0  0  0  0  0  0  0  0  0  0
   -0.3111    5.5232   -3.5177 H   0  0  0  0  0  0  0  0  0  0  0  0
   -1.2277    6.4711   -1.1194 H   0  0  0  0  0  0  0  0  0  0  0  0
    1.0073    6.4749    0.5035 H   0  0  0  0  0  0  0  0  0  0  0  0
    4.9858    5.8573   -0.8397 H   0  0  0  0  0  0  0  0  0  0  0  0
    5.8612    4.8057    1.1654 H   0  0  0  0  0  0  0  0  0  0  0  0
  1  2  1  0  0  0  0
  1 37  1  0  0  0  0
  1 38  1  0  0  0  0
  1 39  1  0  0  0  0
  2  3  1  0  0  0  0
  2  4  1  0  0  0  0
  2  5  1  0  0  0  0
  3 40  1  0  0  0  0
  3 41  1  0  0  0  0
  3 42  1  0  0  0  0
  4 43  1  0  0  0  0
  4 44  1  0  0  0  0
  4 45  1  0  0  0  0
  5  6  1  0  0  0  0
  5 36  2  0  0  0  0
  6  7  2  0  0  0  0
  6 46  1  0  0  0  0
  7  8  1  0  0  0  0
  7 47  1  0  0  0  0
  8  9  1  0  0  0  0
  8 35  2  0  0  0  0
  9 10  1  0  0  0  0
  9 28  1  0  0  0  0
 10 11  1  0  0  0  0
 10 22  1  0  0  0  0
 10 48  1  0  0  0  0
 11 12  2  0  0  0  0
 11 13  1  0  0  0  0
 13 14  1  0  0  0  0
 13 49  1  0  0  0  0
 14 15  1  0  0  0  0
 14 50  1  0  0  0  0
 14 51  1  0  0  0  0
 15 16  1  0  0  0  0
 15 52  1  0  0  0  0
 15 53  1  0  0  0  0
 16 17  1  0  0  0  0
 16 21  1  0  0  0  0
 17 18  1  0  0  0  0
 17 54  1  0  0  0  0
 17 55  1  0  0  0  0
 18 19  1  0  0  0  0
 18 56  1  0  0  0  0
 18 57  1  0  0  0  0
 19 20  1  0  0  0  0
 20 21  1  0  0  0  0
 20 58  1  0  0  0  0
 20 59  1  0  0  0  0
 21 60  1  0  0  0  0
 21 61  1  0  0  0  0
 22 23  1  0  0  0  0
 22 27  2  0  0  0  0
 23 24  2  0  0  0  0
 23 62  1  0  0  0  0
 24 25  1  0  0  0  0
 24 63  1  0  0  0  0
 25 26  2  0  0  0  0
 25 64  1  0  0  0  0
 26 27  1  0  0  0  0
 27 65  1  0  0  0  0
 28 29  2  0  0  0  0
 28 30  1  0  0  0  0
 30 31  2  0  0  0  0
 30 34  1  0  0  0  0
 31 32  1  0  0  0  0
 31 66  1  0  0  0  0
 32 33  2  0  0  0  0
 32 67  1  0  0  0  0
 33 34  1  0  0  0  0
 33 68  1  0  0  0  0
 35 36  1  0  0  0  0
 35 69  1  0  0  0  0
 36 70  1  0  0  0  0
M  END
$$$$
