stable:False satoms:9 tatoms:24 sratio:0.375
  -OEChem-08062408453D

 35 37  0     1  0  0  0  0  0999 V2000
    6.1509   -5.1709   25.8637 O   0  0  0  0  0  0  0  0  0  0  0  0
    7.5807   -4.6864   25.8432 S   0  0  0  0  0  0  0  0  0  0  0  0
    8.4823   -5.8145   25.7542 O   0  0  0  0  0  0  0  0  0  0  0  0
    7.8900   -3.8665   27.0040 O   0  5  0  0  0  0  0  0  0  0  0  0
    7.6641   -3.8748   24.4680 N   0  0  0  0  0  0  0  0  0  0  0  0
    8.3938   -3.0426   23.9225 C   0  0  0  0  0  0  0  0  0  0  0  0
    8.8493   -2.1996   23.3139 C   0  0  0  0  0  0  0  0  0  0  0  0
   10.5822   -1.2021   23.4033 C   0  0  3  0  0  0  0  0  0  0  0  0
   10.7100   -0.3164   24.9846 S   0  0  0  0  0  0  0  0  0  0  0  0
   12.0990   -0.0978   24.5867 C   0  0  0  0  0  0  0  0  0  0  0  0
   12.9210   -0.5221   23.9854 C   0  0  0  0  0  0  0  0  0  0  0  0
   13.1285   -1.2881   23.4673 C   0  0  0  0  0  0  0  0  0  0  0  0
   11.1324   -1.7584   22.6347 O   0  0  0  0  0  0  0  0  0  0  0  0
    9.6384   -1.1849   22.6130 C   0  0  1  0  0  0  0  0  0  0  0  0
    9.0712   -0.1737   21.5230 C   0  0  0  0  0  0  0  0  0  0  0  0
    9.7012    0.7935   21.1693 O   0  0  0  0  0  0  0  0  0  0  0  0
    7.8932   -0.6078   21.2092 N   0  0  0  0  0  0  0  0  0  0  0  0
    7.2484   -0.0321   20.2358 C   0  0  0  0  0  0  0  0  0  0  0  0
    7.4363    0.1315   18.9417 C   0  0  0  0  0  0  0  0  0  0  0  0
    7.1350    0.5081   17.8386 N   0  0  0  0  0  0  0  0  0  0  0  0
    6.1426    0.9979   18.3198 C   0  0  1  0  0  0  0  0  0  0  0  0
    5.4129    1.2136   19.2704 N   0  3  0  0  0  0  0  0  0  0  0  0
    5.9216    0.6385   20.3241 C   0  0  0  0  0  0  0  0  0  0  0  0
    5.3788    0.6352   21.2597 H   0  0  0  0  0  0  0  0  0  0  0  0
    6.7793   -3.4092   24.4534 H   0  0  0  0  0  0  0  0  0  0  0  0
   10.2242   -2.1160   23.8998 H   0  0  0  0  0  0  0  0  0  0  0  0
   12.5830   -0.0333   25.5724 H   0  0  0  0  0  0  0  0  0  0  0  0
   12.0266    0.9080   24.1473 H   0  0  0  0  0  0  0  0  0  0  0  0
   13.7623    0.1551   23.9883 H   0  0  0  0  0  0  0  0  0  0  0  0
   14.0941   -1.3727   22.9912 H   0  0  0  0  0  0  0  0  0  0  0  0
   12.3991   -2.0764   23.3529 H   0  0  0  0  0  0  0  0  0  0  0  0
    7.4847   -1.3733   21.7064 H   0  0  0  0  0  0  0  0  0  0  0  0
    6.6768    1.9431   18.4966 H   0  0  0  0  0  0  0  0  0  0  0  0
    5.3434    2.1991   19.4250 H   0  0  0  0  0  0  0  0  0  0  0  0
    4.5034    0.8398   19.0886 H   0  0  0  0  0  0  0  0  0  0  0  0
 20 21  1  0  0  0  0
 19 20  2  0  0  0  0
 19 21  1  0  0  0  0
 21 22  1  0  0  0  0
 18 19  1  0  0  0  0
 22 23  1  0  0  0  0
 18 23  2  0  0  0  0
 17 18  1  0  0  0  0
 23 24  1  0  0  0  0
 15 16  2  0  0  0  0
 15 17  1  0  0  0  0
 14 15  1  0  0  0  0
 13 14  1  0  0  0  0
  8 13  1  0  0  0  0
  8 14  1  0  0  0  0
  7 14  1  0  0  0  0
 11 12  2  0  0  0  0
  8  9  1  0  0  0  0
  6  7  3  0  0  0  0
 10 11  1  0  0  0  0
  5  6  1  0  0  0  0
  9 10  1  0  0  0  0
  2  5  1  0  0  0  0
  2  3  2  0  0  0  0
  1  2  2  0  0  0  0
  2  4  1  0  0  0  0
  5 25  1  0  0  0  0
  8 26  1  0  0  0  0
 10 27  1  0  0  0  0
 10 28  1  0  0  0  0
 11 29  1  0  0  0  0
 12 30  1  0  0  0  0
 12 31  1  0  0  0  0
 17 32  1  0  0  0  0
 21 33  1  0  0  0  0
 22 34  1  0  0  0  0
 22 35  1  0  0  0  0
M  CHG  2   4  -1  22   1
M  END
> <Chemgauss4>
-10.742819

$$$$
