REMARK  4 active torsions:
REMARK  status: ('A' for Active; 'I' for Inactive)
REMARK    1  A    between atoms: S_2  and  N_5 
REMARK    2  A    between atoms: N_5  and  C_7 
REMARK    3  A    between atoms: C_7  and  C_8 
REMARK    4  A    between atoms: C_16  and  C_17 
REMARK       I    between atoms: C_17  and  N_19 
ROOT
HETATM    1  C   UNL     1       9.402  -1.845  23.512  1.00  0.00     0.041 A 
HETATM    2  C   UNL     1      10.520  -1.106  23.204  1.00  0.00     0.080 A 
HETATM    3  C   UNL     1      11.234  -0.108  24.167  1.00  0.00     0.000 C 
HETATM    4  C   UNL     1      12.266   0.194  24.098  1.00  0.00     0.015 C 
HETATM    5  C   UNL     1      13.086  -0.298  23.357  1.00  0.00     0.087 C 
HETATM    6  N   UNL     1      12.888  -1.323  22.600  1.00  0.00    -0.377 N 
ATOM      7  HN  UNL     1      13.603  -1.810  22.059  1.00  0.00     0.164 HD
HETATM    8  C   UNL     1      11.839  -1.580  22.634  1.00  0.00     0.085 C 
HETATM    9  C   UNL     1       9.558  -0.707  22.539  1.00  0.00     0.050 A 
ENDROOT
BRANCH   9  10
HETATM   10  C   UNL     1       8.966   0.096  21.477  1.00  0.00     0.256 C 
HETATM   11  O   UNL     1       9.541   1.044  21.024  1.00  0.00    -0.268 OA
HETATM   12  N   UNL     1       7.823  -0.472  21.173  1.00  0.00    -0.308 N 
HETATM   13  C   UNL     1       7.065  -0.008  20.220  1.00  0.00     0.122 A 
ATOM     14  HN  UNL     1       7.521  -1.295  21.694  1.00  0.00     0.170 HD
HETATM   15  N   UNL     1       7.396  -0.009  18.935  1.00  0.00    -0.286 N 
HETATM   16  C   UNL     1       5.762   0.542  20.550  1.00  0.00     0.051 A 
HETATM   17  N   UNL     1       6.693   0.304  17.942  1.00  0.00    -0.310 N 
ATOM     18  HN  UNL     1       8.350  -0.304  18.725  1.00  0.00     0.188 HD
HETATM   19  C   UNL     1       5.744   0.721  18.443  1.00  0.00     0.107 A 
ATOM     20  HN  UNL     1       6.907   0.212  16.949  1.00  0.00     0.186 HD
HETATM   21  C   UNL     1       5.194   0.865  19.486  1.00  0.00     0.022 A 
ENDBRANCH   9  10
BRANCH   1  22
HETATM   22  C   UNL     1       8.848  -2.760  24.134  1.00  0.00    -0.021 C 
BRANCH  22  23
HETATM   23  N   UNL     1       8.191  -3.557  24.644  1.00  0.00    -0.236 N 
ATOM     24  HN  UNL     1       7.428  -3.882  24.050  1.00  0.00     0.189 HD
BRANCH  23  25
HETATM   25  S   UNL     1       8.210  -4.263  26.070  1.00  0.00     0.327 S 
HETATM   26 CL   UNL     1       6.424  -4.848  26.327  1.00  0.00     0.042 Cl
HETATM   27  O   UNL     1       9.036  -5.449  26.038  1.00  0.00    -0.188 OA
HETATM   28  O   UNL     1       8.497  -3.337  27.138  1.00  0.00    -0.188 OA
ENDBRANCH  23  25
ENDBRANCH  22  23
ENDBRANCH   1  22
TORSDOF 4
