stable:False satoms:8 tatoms:24 sratio:0.3333333333333333
  -OEChem-07092417423D

 24 26  0     1  0  0  0  0  0999 V2000
    6.4239   -4.8483   26.3268 Cl  0  0  0  0  0  0  0  0  0  0  0  0
    8.2096   -4.2634   26.0702 S   0  0  0  0  0  0  0  0  0  0  0  0
    9.0357   -5.4486   26.0383 O   0  0  0  0  0  0  0  0  0  0  0  0
    8.4968   -3.3367   27.1376 O   0  0  0  0  0  0  0  0  0  0  0  0
    8.1914   -3.5568   24.6441 N   0  0  0  0  0  0  0  0  0  0  0  0
    8.8485   -2.7595   24.1344 C   0  0  0  0  0  0  0  0  0  0  0  0
    9.4022   -1.8453   23.5119 C   0  0  0  0  0  0  0  0  0  0  0  0
   10.5201   -1.1063   23.2038 C   0  0  1  0  0  0  0  0  0  0  0  0
   11.2342   -0.1084   24.1674 C   0  0  0  0  0  0  0  0  0  0  0  0
   12.2657    0.1940   24.0983 C   0  0  0  0  0  0  0  0  0  0  0  0
   13.0865   -0.2984   23.3574 C   0  0  0  0  0  0  0  0  0  0  0  0
   12.8880   -1.3233   22.6000 N   0  0  0  0  0  0  0  0  0  0  0  0
   11.8391   -1.5798   22.6336 C   0  0  0  0  0  0  0  0  0  0  0  0
    9.5576   -0.7067   22.5394 C   0  0  3  0  0  0  0  0  0  0  0  0
    8.9663    0.0956   21.4769 C   0  0  0  0  0  0  0  0  0  0  0  0
    9.5408    1.0440   21.0237 O   0  0  0  0  0  0  0  0  0  0  0  0
    7.8230   -0.4716   21.1733 N   0  0  0  0  0  0  0  0  0  0  0  0
    7.0646   -0.0079   20.2195 C   0  0  0  0  0  0  0  0  0  0  0  0
    7.3960   -0.0092   18.9351 N   0  0  0  0  0  0  0  0  0  0  0  0
    6.6933    0.3037   17.9422 N   0  0  0  0  0  0  0  0  0  0  0  0
    5.7443    0.7213   18.4433 C   0  0  0  0  0  0  0  0  0  0  0  0
    5.1941    0.8652   19.4859 C   0  0  0  0  0  0  0  0  0  0  0  0
    5.7622    0.5418   20.5500 C   0  0  0  0  0  0  0  0  0  0  0  0
    5.4000    0.6145   21.5835 H   0  0  0  0  0  0  0  0  0  0  0  0
 20 21  2  0  0  0  0
 19 20  1  0  0  0  0
 21 22  1  0  0  0  0
 18 19  2  0  0  0  0
 22 23  2  0  0  0  0
 18 23  1  0  0  0  0
 17 18  1  0  0  0  0
 23 24  1  0  0  0  0
 15 16  2  0  0  0  0
 15 17  1  0  0  0  0
 14 15  1  0  0  0  0
  8 14  1  0  0  0  0
  7 14  1  0  0  0  0
 12 13  1  0  0  0  0
 11 12  2  0  0  0  0
  8 13  1  0  0  0  0
  7  8  1  0  0  0  0
  8  9  1  0  0  0  0
 10 11  1  0  0  0  0
  6  7  2  0  0  0  0
  9 10  2  0  0  0  0
  5  6  1  0  0  0  0
  2  5  1  0  0  0  0
  2  3  2  0  0  0  0
  1  2  1  0  0  0  0
  2  4  2  0  0  0  0
M  END
> <Shapegauss>
-282.352051

$$$$
