MODEL 1
REMARK VINA RESULT:    -7.918      0.000      0.000
REMARK INTER + INTRA:         -10.356
REMARK INTER:                  -9.770
REMARK INTRA:                  -0.587
REMARK UNBOUND:                -0.587
REMARK  4 active torsions:
REMARK  status: ('A' for Active; 'I' for Inactive)
REMARK    1  A    between atoms: S_2  and  N_5 
REMARK    2  A    between atoms: N_5  and  C_7 
REMARK    3  A    between atoms: C_7  and  C_8 
REMARK    4  A    between atoms: C_16  and  C_17 
REMARK       I    between atoms: C_17  and  N_19 
ROOT
HETATM    1  C   UNL     1       8.935  -2.301  22.984  1.00  0.00     0.041 A 
HETATM    2  C   UNL     1       9.941  -1.376  23.140  1.00  0.00     0.080 A 
HETATM    3  C   UNL     1      10.207  -0.543  24.431  1.00  0.00     0.000 C 
HETATM    4  C   UNL     1      11.152  -0.106  24.706  1.00  0.00     0.015 C 
HETATM    5  C   UNL     1      12.203  -0.308  24.141  1.00  0.00     0.087 C 
HETATM    6  N   UNL     1      12.383  -1.149  23.180  1.00  0.00    -0.377 N 
ATOM      7  HN  UNL     1      13.284  -1.405  22.775  1.00  0.00     0.164 HD
HETATM    8  C   UNL     1      11.422  -1.537  22.876  1.00  0.00     0.085 C 
HETATM    9  C   UNL     1       9.112  -0.961  22.323  1.00  0.00     0.050 A 
ENDROOT
BRANCH   9  10
HETATM   10  C   UNL     1       8.658  -0.017  21.309  1.00  0.00     0.256 C 
HETATM   11  O   UNL     1       9.331   0.922  20.993  1.00  0.00    -0.268 OA
HETATM   12  N   UNL     1       7.504  -0.464  20.874  1.00  0.00    -0.308 N 
HETATM   13  C   UNL     1       6.853   0.145  19.923  1.00  0.00     0.122 A 
ATOM     14  HN  UNL     1       7.107  -1.307  21.289  1.00  0.00     0.170 HD
HETATM   15  N   UNL     1       7.278   0.240  18.670  1.00  0.00    -0.286 N 
HETATM   16  C   UNL     1       5.571   0.760  20.218  1.00  0.00     0.051 A 
HETATM   17  N   UNL     1       6.674   0.699  17.668  1.00  0.00    -0.310 N 
ATOM     18  HN  UNL     1       8.222  -0.106  18.496  1.00  0.00     0.188 HD
HETATM   19  C   UNL     1       5.723   1.139  18.143  1.00  0.00     0.107 A 
ATOM     20  HN  UNL     1       6.955   0.686  16.687  1.00  0.00     0.186 HD
HETATM   21  C   UNL     1       5.108   1.226  19.156  1.00  0.00     0.022 A 
ENDBRANCH   9  10
BRANCH   1  22
HETATM   22  C   UNL     1       8.423  -3.397  23.247  1.00  0.00    -0.021 C 
BRANCH  22  23
HETATM   23  N   UNL     1       7.849  -4.389  23.359  1.00  0.00    -0.236 N 
ATOM     24  HN  UNL     1       8.171  -4.947  24.150  1.00  0.00     0.189 HD
BRANCH  23  25
HETATM   25  S   UNL     1       6.665  -5.083  22.553  1.00  0.00     0.327 S 
HETATM   26 CL   UNL     1       5.608  -3.635  21.935  1.00  0.00     0.042 Cl
HETATM   27  O   UNL     1       7.176  -5.756  21.380  1.00  0.00    -0.188 OA
HETATM   28  O   UNL     1       5.815  -5.880  23.403  1.00  0.00    -0.188 OA
ENDBRANCH  23  25
ENDBRANCH  22  23
ENDBRANCH   1  22
TORSDOF 4
ENDMDL
MODEL 2
REMARK VINA RESULT:    -7.519      4.527      6.407
REMARK INTER + INTRA:          -9.864
REMARK INTER:                  -9.310
REMARK INTRA:                  -0.554
REMARK UNBOUND:                -0.587
REMARK  4 active torsions:
REMARK  status: ('A' for Active; 'I' for Inactive)
REMARK    1  A    between atoms: S_2  and  N_5 
REMARK    2  A    between atoms: N_5  and  C_7 
REMARK    3  A    between atoms: C_7  and  C_8 
REMARK    4  A    between atoms: C_16  and  C_17 
REMARK       I    between atoms: C_17  and  N_19 
ROOT
HETATM    1  C   UNL     1       7.315  -4.893  25.331  1.00  0.00     0.041 A 
HETATM    2  C   UNL     1       6.974  -4.816  24.002  1.00  0.00     0.080 A 
HETATM    3  C   UNL     1       7.574  -5.701  22.865  1.00  0.00     0.000 C 
HETATM    4  C   UNL     1       7.094  -5.915  21.924  1.00  0.00     0.015 C 
HETATM    5  C   UNL     1       5.952  -5.633  21.646  1.00  0.00     0.087 C 
HETATM    6  N   UNL     1       5.092  -5.117  22.457  1.00  0.00    -0.377 N 
ATOM      7  HN  UNL     1       4.099  -4.980  22.263  1.00  0.00     0.164 HD
HETATM    8  C   UNL     1       5.597  -4.854  23.375  1.00  0.00     0.085 C 
HETATM    9  C   UNL     1       7.576  -3.791  24.339  1.00  0.00     0.050 A 
ENDROOT
BRANCH   9  10
HETATM   10  C   UNL     1       8.051  -2.435  24.101  1.00  0.00     0.256 C 
HETATM   11  O   UNL     1       7.317  -1.586  23.682  1.00  0.00    -0.268 OA
HETATM   12  N   UNL     1       9.308  -2.408  24.476  1.00  0.00    -0.308 N 
HETATM   13  C   UNL     1      10.011  -1.312  24.424  1.00  0.00     0.122 A 
ATOM     14  HN  UNL     1       9.745  -3.265  24.817  1.00  0.00     0.170 HD
HETATM   15  N   UNL     1       9.777  -0.239  25.168  1.00  0.00    -0.286 N 
HETATM   16  C   UNL     1      11.138  -1.232  23.512  1.00  0.00     0.051 A 
HETATM   17  N   UNL     1      10.461   0.809  25.273  1.00  0.00    -0.310 N 
ATOM     18  HN  UNL     1       8.926  -0.269  25.731  1.00  0.00     0.188 HD
HETATM   19  C   UNL     1      11.261   0.655  24.460  1.00  0.00     0.107 A 
ATOM     20  HN  UNL     1      10.341   1.593  25.914  1.00  0.00     0.186 HD
HETATM   21  C   UNL     1      11.694  -0.126  23.676  1.00  0.00     0.022 A 
ENDBRANCH   9  10
BRANCH   1  22
HETATM   22  C   UNL     1       7.311  -5.487  26.417  1.00  0.00    -0.021 C 
BRANCH  22  23
HETATM   23  N   UNL     1       7.473  -6.031  27.419  1.00  0.00    -0.236 N 
ATOM     24  HN  UNL     1       8.424  -6.381  27.532  1.00  0.00     0.189 HD
BRANCH  23  25
HETATM   25  S   UNL     1       6.541  -6.356  28.668  1.00  0.00     0.327 S 
HETATM   26 CL   UNL     1       4.832  -6.672  27.907  1.00  0.00     0.042 Cl
HETATM   27  O   UNL     1       6.951  -7.591  29.298  1.00  0.00    -0.188 OA
HETATM   28  O   UNL     1       6.394  -5.227  29.553  1.00  0.00    -0.188 OA
ENDBRANCH  23  25
ENDBRANCH  22  23
ENDBRANCH   1  22
TORSDOF 4
ENDMDL
MODEL 3
REMARK VINA RESULT:    -7.411      3.123      6.373
REMARK INTER + INTRA:          -9.730
REMARK INTER:                  -9.297
REMARK INTRA:                  -0.433
REMARK UNBOUND:                -0.587
REMARK  4 active torsions:
REMARK  status: ('A' for Active; 'I' for Inactive)
REMARK    1  A    between atoms: S_2  and  N_5 
REMARK    2  A    between atoms: N_5  and  C_7 
REMARK    3  A    between atoms: C_7  and  C_8 
REMARK    4  A    between atoms: C_16  and  C_17 
REMARK       I    between atoms: C_17  and  N_19 
ROOT
HETATM    1  C   UNL     1       6.328  -2.260  21.593  1.00  0.00     0.041 A 
HETATM    2  C   UNL     1       6.253  -3.438  22.299  1.00  0.00     0.080 A 
HETATM    3  C   UNL     1       5.160  -3.788  23.355  1.00  0.00     0.000 C 
HETATM    4  C   UNL     1       4.867  -4.784  23.642  1.00  0.00     0.015 C 
HETATM    5  C   UNL     1       5.228  -5.800  23.093  1.00  0.00     0.087 C 
HETATM    6  N   UNL     1       5.941  -5.855  22.019  1.00  0.00    -0.377 N 
ATOM      7  HN  UNL     1       6.154  -6.701  21.490  1.00  0.00     0.164 HD
HETATM    8  C   UNL     1       6.275  -4.857  21.775  1.00  0.00     0.085 C 
HETATM    9  C   UNL     1       7.246  -2.796  22.659  1.00  0.00     0.050 A 
ENDROOT
BRANCH   9  10
HETATM   10  C   UNL     1       8.497  -2.656  23.392  1.00  0.00     0.256 C 
HETATM   11  O   UNL     1       8.946  -3.564  24.031  1.00  0.00    -0.268 OA
HETATM   12  N   UNL     1       8.946  -1.449  23.138  1.00  0.00    -0.308 N 
HETATM   13  C   UNL     1      10.081  -1.029  23.621  1.00  0.00     0.122 A 
ATOM     14  HN  UNL     1       8.393  -0.826  22.549  1.00  0.00     0.170 HD
HETATM   15  N   UNL     1      11.264  -1.528  23.288  1.00  0.00    -0.286 N 
HETATM   16  C   UNL     1      10.087   0.063  24.578  1.00  0.00     0.051 A 
HETATM   17  N   UNL     1      12.408  -1.117  23.606  1.00  0.00    -0.310 N 
ATOM     18  HN  UNL     1      11.243  -2.357  22.694  1.00  0.00     0.188 HD
HETATM   19  C   UNL     1      12.162  -0.289  24.366  1.00  0.00     0.107 A 
ATOM     20  HN  UNL     1      13.319  -1.434  23.275  1.00  0.00     0.186 HD
HETATM   21  C   UNL     1      11.275   0.334  24.853  1.00  0.00     0.022 A 
ENDBRANCH   9  10
BRANCH   1  22
HETATM   22  C   UNL     1       5.895  -1.488  20.728  1.00  0.00    -0.021 C 
BRANCH  22  23
HETATM   23  N   UNL     1       5.428  -0.905  19.851  1.00  0.00    -0.236 N 
ATOM     24  HN  UNL     1       4.440  -1.117  19.716  1.00  0.00     0.189 HD
BRANCH  23  25
HETATM   25  S   UNL     1       5.984   0.156  18.804  1.00  0.00     0.327 S 
HETATM   26 CL   UNL     1       5.089   1.768  19.251  1.00  0.00     0.042 Cl
HETATM   27  O   UNL     1       7.395   0.391  19.020  1.00  0.00    -0.188 OA
HETATM   28  O   UNL     1       5.609  -0.160  17.448  1.00  0.00    -0.188 OA
ENDBRANCH  23  25
ENDBRANCH  22  23
ENDBRANCH   1  22
TORSDOF 4
ENDMDL
MODEL 4
REMARK VINA RESULT:    -7.382      3.719      5.526
REMARK INTER + INTRA:          -9.695
REMARK INTER:                  -8.999
REMARK INTRA:                  -0.697
REMARK UNBOUND:                -0.587
REMARK  4 active torsions:
REMARK  status: ('A' for Active; 'I' for Inactive)
REMARK    1  A    between atoms: S_2  and  N_5 
REMARK    2  A    between atoms: N_5  and  C_7 
REMARK    3  A    between atoms: C_7  and  C_8 
REMARK    4  A    between atoms: C_16  and  C_17 
REMARK       I    between atoms: C_17  and  N_19 
ROOT
HETATM    1  C   UNL     1       7.478  -4.898  25.480  1.00  0.00     0.041 A 
HETATM    2  C   UNL     1       7.061  -4.859  24.170  1.00  0.00     0.080 A 
HETATM    3  C   UNL     1       7.515  -5.845  23.050  1.00  0.00     0.000 C 
HETATM    4  C   UNL     1       6.961  -6.065  22.152  1.00  0.00     0.015 C 
HETATM    5  C   UNL     1       5.830  -5.701  21.926  1.00  0.00     0.087 C 
HETATM    6  N   UNL     1       5.067  -5.076  22.757  1.00  0.00    -0.377 N 
ATOM      7  HN  UNL     1       4.079  -4.865  22.615  1.00  0.00     0.164 HD
HETATM    8  C   UNL     1       5.649  -4.811  23.628  1.00  0.00     0.085 C 
HETATM    9  C   UNL     1       7.764  -3.873  24.416  1.00  0.00     0.050 A 
ENDROOT
BRANCH   9  10
HETATM   10  C   UNL     1       8.332  -2.574  24.077  1.00  0.00     0.256 C 
HETATM   11  O   UNL     1       8.889  -1.908  24.902  1.00  0.00    -0.268 OA
HETATM   12  N   UNL     1       8.135  -2.405  22.791  1.00  0.00    -0.308 N 
HETATM   13  C   UNL     1       8.568  -1.345  22.170  1.00  0.00     0.122 A 
ATOM     14  HN  UNL     1       7.630  -3.119  22.266  1.00  0.00     0.170 HD
HETATM   15  N   UNL     1       9.851  -1.050  22.001  1.00  0.00    -0.286 N 
HETATM   16  C   UNL     1       7.612  -0.410  21.603  1.00  0.00     0.051 A 
HETATM   17  N   UNL     1      10.363  -0.125  21.323  1.00  0.00    -0.310 N 
ATOM     18  HN  UNL     1      10.511  -1.658  22.488  1.00  0.00     0.188 HD
HETATM   19  C   UNL     1       9.435   0.478  21.004  1.00  0.00     0.107 A 
ATOM     20  HN  UNL     1      11.345   0.048  21.110  1.00  0.00     0.186 HD
HETATM   21  C   UNL     1       8.247   0.486  21.009  1.00  0.00     0.022 A 
ENDBRANCH   9  10
BRANCH   1  22
HETATM   22  C   UNL     1       7.493  -5.436  26.594  1.00  0.00    -0.021 C 
BRANCH  22  23
HETATM   23  N   UNL     1       7.399  -6.046  27.567  1.00  0.00    -0.236 N 
ATOM     24  HN  UNL     1       8.228  -6.606  27.766  1.00  0.00     0.189 HD
BRANCH  23  25
HETATM   25  S   UNL     1       6.262  -6.208  28.669  1.00  0.00     0.327 S 
HETATM   26 CL   UNL     1       4.676  -5.649  27.791  1.00  0.00     0.042 Cl
HETATM   27  O   UNL     1       6.081  -7.601  29.010  1.00  0.00    -0.188 OA
HETATM   28  O   UNL     1       6.449  -5.315  29.787  1.00  0.00    -0.188 OA
ENDBRANCH  23  25
ENDBRANCH  22  23
ENDBRANCH   1  22
TORSDOF 4
ENDMDL
MODEL 5
REMARK VINA RESULT:    -7.249     14.095     17.081
REMARK INTER + INTRA:          -9.531
REMARK INTER:                  -9.071
REMARK INTRA:                  -0.460
REMARK UNBOUND:                -0.587
REMARK  4 active torsions:
REMARK  status: ('A' for Active; 'I' for Inactive)
REMARK    1  A    between atoms: S_2  and  N_5 
REMARK    2  A    between atoms: N_5  and  C_7 
REMARK    3  A    between atoms: C_7  and  C_8 
REMARK    4  A    between atoms: C_16  and  C_17 
REMARK       I    between atoms: C_17  and  N_19 
ROOT
HETATM    1  C   UNL     1      23.385  -3.417  25.257  1.00  0.00     0.041 A 
HETATM    2  C   UNL     1      22.560  -2.323  25.139  1.00  0.00     0.080 A 
HETATM    3  C   UNL     1      22.779  -1.130  24.159  1.00  0.00     0.000 C 
HETATM    4  C   UNL     1      22.006  -0.474  23.793  1.00  0.00     0.015 C 
HETATM    5  C   UNL     1      20.819  -0.637  23.961  1.00  0.00     0.087 C 
HETATM    6  N   UNL     1      20.279  -1.667  24.518  1.00  0.00    -0.377 N 
ATOM      7  HN  UNL     1      19.278  -1.863  24.563  1.00  0.00     0.164 HD
HETATM    8  C   UNL     1      21.062  -2.288  24.930  1.00  0.00     0.085 C 
HETATM    9  C   UNL     1      23.127  -2.304  26.237  1.00  0.00     0.050 A 
ENDROOT
BRANCH   9  10
HETATM   10  C   UNL     1      23.323  -1.775  27.580  1.00  0.00     0.256 C 
HETATM   11  O   UNL     1      23.139  -0.617  27.823  1.00  0.00    -0.268 OA
HETATM   12  N   UNL     1      23.652  -2.795  28.338  1.00  0.00    -0.308 N 
HETATM   13  C   UNL     1      23.857  -2.653  29.617  1.00  0.00     0.122 A 
ATOM     14  HN  UNL     1      23.749  -3.718  27.917  1.00  0.00     0.170 HD
HETATM   15  N   UNL     1      22.917  -2.319  30.492  1.00  0.00    -0.286 N 
HETATM   16  C   UNL     1      25.186  -2.881  30.155  1.00  0.00     0.051 A 
HETATM   17  N   UNL     1      22.989  -2.274  31.745  1.00  0.00    -0.310 N 
ATOM     18  HN  UNL     1      22.013  -2.065  30.093  1.00  0.00     0.188 HD
HETATM   19  C   UNL     1      24.111  -2.460  31.926  1.00  0.00     0.107 A 
ATOM     20  HN  UNL     1      22.247  -2.115  32.426  1.00  0.00     0.186 HD
HETATM   21  C   UNL     1      25.133  -2.750  31.395  1.00  0.00     0.022 A 
ENDBRANCH   9  10
BRANCH   1  22
HETATM   22  C   UNL     1      23.858  -4.468  24.807  1.00  0.00    -0.021 C 
BRANCH  22  23
HETATM   23  N   UNL     1      24.163  -5.520  24.452  1.00  0.00    -0.236 N 
ATOM     24  HN  UNL     1      24.322  -5.569  23.445  1.00  0.00     0.189 HD
BRANCH  23  25
HETATM   25  S   UNL     1      24.392  -6.915  25.183  1.00  0.00     0.327 S 
HETATM   26 CL   UNL     1      26.251  -7.243  24.995  1.00  0.00     0.042 Cl
HETATM   27  O   UNL     1      24.133  -6.793  26.600  1.00  0.00    -0.188 OA
HETATM   28  O   UNL     1      23.713  -8.001  24.520  1.00  0.00    -0.188 OA
ENDBRANCH  23  25
ENDBRANCH  22  23
ENDBRANCH   1  22
TORSDOF 4
ENDMDL
MODEL 6
REMARK VINA RESULT:    -7.203      2.833      6.115
REMARK INTER + INTRA:          -9.474
REMARK INTER:                  -8.797
REMARK INTRA:                  -0.677
REMARK UNBOUND:                -0.587
REMARK  4 active torsions:
REMARK  status: ('A' for Active; 'I' for Inactive)
REMARK    1  A    between atoms: S_2  and  N_5 
REMARK    2  A    between atoms: N_5  and  C_7 
REMARK    3  A    between atoms: C_7  and  C_8 
REMARK    4  A    between atoms: C_16  and  C_17 
REMARK       I    between atoms: C_17  and  N_19 
ROOT
HETATM    1  C   UNL     1       8.866  -0.988  21.876  1.00  0.00     0.041 A 
HETATM    2  C   UNL     1       9.783  -1.123  22.891  1.00  0.00     0.080 A 
HETATM    3  C   UNL     1      11.292  -1.471  22.702  1.00  0.00     0.000 C 
HETATM    4  C   UNL     1      12.078  -1.235  23.400  1.00  0.00     0.015 C 
HETATM    5  C   UNL     1      11.952  -0.533  24.377  1.00  0.00     0.087 C 
HETATM    6  N   UNL     1      10.888   0.125  24.691  1.00  0.00    -0.377 N 
ATOM      7  HN  UNL     1      10.811   0.805  25.448  1.00  0.00     0.164 HD
HETATM    8  C   UNL     1      10.093  -0.163  24.019  1.00  0.00     0.085 C 
HETATM    9  C   UNL     1       8.961  -2.044  22.944  1.00  0.00     0.050 A 
ENDROOT
BRANCH   9  10
HETATM   10  C   UNL     1       8.351  -3.195  23.598  1.00  0.00     0.256 C 
HETATM   11  O   UNL     1       7.980  -4.141  22.965  1.00  0.00    -0.268 OA
HETATM   12  N   UNL     1       8.377  -2.949  24.886  1.00  0.00    -0.308 N 
HETATM   13  C   UNL     1       7.935  -3.816  25.753  1.00  0.00     0.122 A 
ATOM     14  HN  UNL     1       8.753  -2.061  25.217  1.00  0.00     0.170 HD
HETATM   15  N   UNL     1       8.491  -4.999  25.977  1.00  0.00    -0.286 N 
HETATM   16  C   UNL     1       6.765  -3.492  26.551  1.00  0.00     0.051 A 
HETATM   17  N   UNL     1       8.212  -5.844  26.864  1.00  0.00    -0.310 N 
ATOM     18  HN  UNL     1       9.249  -5.258  25.344  1.00  0.00     0.188 HD
HETATM   19  C   UNL     1       7.265  -5.390  27.336  1.00  0.00     0.107 A 
ATOM     20  HN  UNL     1       8.698  -6.708  27.103  1.00  0.00     0.186 HD
HETATM   21  C   UNL     1       6.563  -4.432  27.347  1.00  0.00     0.022 A 
ENDBRANCH   9  10
BRANCH   1  22
HETATM   22  C   UNL     1       8.415  -0.375  20.900  1.00  0.00    -0.021 C 
BRANCH  22  23
HETATM   23  N   UNL     1       7.864   0.230  20.089  1.00  0.00    -0.236 N 
ATOM     24  HN  UNL     1       8.468   0.902  19.617  1.00  0.00     0.189 HD
BRANCH  23  25
HETATM   25  S   UNL     1       6.369   0.248  19.543  1.00  0.00     0.327 S 
HETATM   26 CL   UNL     1       5.661  -1.434  20.061  1.00  0.00     0.042 Cl
HETATM   27  O   UNL     1       5.591   1.256  20.227  1.00  0.00    -0.188 OA
HETATM   28  O   UNL     1       6.311   0.293  18.102  1.00  0.00    -0.188 OA
ENDBRANCH  23  25
ENDBRANCH  22  23
ENDBRANCH   1  22
TORSDOF 4
ENDMDL
MODEL 7
REMARK VINA RESULT:    -7.125     23.894     26.809
REMARK INTER + INTRA:          -9.378
REMARK INTER:                  -8.831
REMARK INTRA:                  -0.547
REMARK UNBOUND:                -0.587
REMARK  4 active torsions:
REMARK  status: ('A' for Active; 'I' for Inactive)
REMARK    1  A    between atoms: S_2  and  N_5 
REMARK    2  A    between atoms: N_5  and  C_7 
REMARK    3  A    between atoms: C_7  and  C_8 
REMARK    4  A    between atoms: C_16  and  C_17 
REMARK       I    between atoms: C_17  and  N_19 
ROOT
HETATM    1  C   UNL     1       9.530  17.684   3.164  1.00  0.00     0.041 A 
HETATM    2  C   UNL     1       8.934  17.845   1.935  1.00  0.00     0.080 A 
HETATM    3  C   UNL     1       7.563  18.546   1.683  1.00  0.00     0.000 C 
HETATM    4  C   UNL     1       7.255  18.996   0.753  1.00  0.00     0.015 C 
HETATM    5  C   UNL     1       7.971  19.167  -0.207  1.00  0.00     0.087 C 
HETATM    6  N   UNL     1       9.237  18.929  -0.245  1.00  0.00    -0.377 N 
ATOM      7  HN  UNL     1       9.866  19.174  -1.011  1.00  0.00     0.164 HD
HETATM    8  C   UNL     1       9.522  18.427   0.668  1.00  0.00     0.085 C 
HETATM    9  C   UNL     1       8.943  16.648   2.242  1.00  0.00     0.050 A 
ENDROOT
BRANCH   9  10
HETATM   10  C   UNL     1       8.747  15.236   1.941  1.00  0.00     0.256 C 
HETATM   11  O   UNL     1       9.224  14.740   0.961  1.00  0.00    -0.268 OA
HETATM   12  N   UNL     1       8.051  14.737   2.935  1.00  0.00    -0.308 N 
HETATM   13  C   UNL     1       7.742  13.472   2.981  1.00  0.00     0.122 A 
ATOM     14  HN  UNL     1       7.745  15.352   3.688  1.00  0.00     0.170 HD
HETATM   15  N   UNL     1       8.626  12.492   3.121  1.00  0.00    -0.286 N 
HETATM   16  C   UNL     1       6.348  13.074   2.889  1.00  0.00     0.051 A 
HETATM   17  N   UNL     1       8.419  11.265   3.292  1.00  0.00    -0.310 N 
ATOM     18  HN  UNL     1       9.606  12.773   3.084  1.00  0.00     0.188 HD
HETATM   19  C   UNL     1       7.278  11.194   3.158  1.00  0.00     0.107 A 
ATOM     20  HN  UNL     1       9.088  10.523   3.498  1.00  0.00     0.186 HD
HETATM   21  C   UNL     1       6.287  11.834   3.017  1.00  0.00     0.022 A 
ENDBRANCH   9  10
BRANCH   1  22
HETATM   22  C   UNL     1      10.102  18.148   4.157  1.00  0.00    -0.021 C 
BRANCH  22  23
HETATM   23  N   UNL     1      10.772  18.508   5.023  1.00  0.00    -0.236 N 
ATOM     24  HN  UNL     1      10.284  18.534   5.918  1.00  0.00     0.189 HD
BRANCH  23  25
HETATM   25  S   UNL     1      12.290  18.973   5.130  1.00  0.00     0.327 S 
HETATM   26 CL   UNL     1      12.284  20.750   4.468  1.00  0.00     0.042 Cl
HETATM   27  O   UNL     1      12.702  19.046   6.514  1.00  0.00    -0.188 OA
HETATM   28  O   UNL     1      13.160  18.215   4.265  1.00  0.00    -0.188 OA
ENDBRANCH  23  25
ENDBRANCH  22  23
ENDBRANCH   1  22
TORSDOF 4
ENDMDL
MODEL 8
REMARK VINA RESULT:    -7.034     19.987     22.762
REMARK INTER + INTRA:          -9.265
REMARK INTER:                  -8.640
REMARK INTRA:                  -0.626
REMARK UNBOUND:                -0.587
REMARK  4 active torsions:
REMARK  status: ('A' for Active; 'I' for Inactive)
REMARK    1  A    between atoms: S_2  and  N_5 
REMARK    2  A    between atoms: N_5  and  C_7 
REMARK    3  A    between atoms: C_7  and  C_8 
REMARK    4  A    between atoms: C_16  and  C_17 
REMARK       I    between atoms: C_17  and  N_19 
ROOT
HETATM    1  C   UNL     1       6.577  11.452   3.192  1.00  0.00     0.041 A 
HETATM    2  C   UNL     1       5.219  11.630   3.075  1.00  0.00     0.080 A 
HETATM    3  C   UNL     1       4.301  12.299   4.145  1.00  0.00     0.000 C 
HETATM    4  C   UNL     1       3.351  12.765   3.946  1.00  0.00     0.015 C 
HETATM    5  C   UNL     1       2.899  12.983   2.845  1.00  0.00     0.087 C 
HETATM    6  N   UNL     1       3.519  12.782   1.732  1.00  0.00    -0.377 N 
ATOM      7  HN  UNL     1       3.190  13.067   0.809  1.00  0.00     0.164 HD
HETATM    8  C   UNL     1       4.443  12.263   1.940  1.00  0.00     0.085 C 
HETATM    9  C   UNL     1       5.475  10.426   3.178  1.00  0.00     0.050 A 
ENDROOT
BRANCH   9  10
HETATM   10  C   UNL     1       5.103   9.018   3.137  1.00  0.00     0.256 C 
HETATM   11  O   UNL     1       5.081   8.413   2.103  1.00  0.00    -0.268 OA
HETATM   12  N   UNL     1       4.889   8.652   4.379  1.00  0.00    -0.308 N 
HETATM   13  C   UNL     1       4.575   7.425   4.682  1.00  0.00     0.122 A 
ATOM     14  HN  UNL     1       4.971   9.344   5.124  1.00  0.00     0.170 HD
HETATM   15  N   UNL     1       5.385   6.386   4.526  1.00  0.00    -0.286 N 
HETATM   16  C   UNL     1       3.264   7.142   5.240  1.00  0.00     0.051 A 
HETATM   17  N   UNL     1       5.218   5.196   4.894  1.00  0.00    -0.310 N 
ATOM     18  HN  UNL     1       6.263   6.579   4.042  1.00  0.00     0.188 HD
HETATM   19  C   UNL     1       4.131   5.213   5.272  1.00  0.00     0.107 A 
ATOM     20  HN  UNL     1       5.876   4.417   4.866  1.00  0.00     0.186 HD
HETATM   21  C   UNL     1       3.208   5.923   5.507  1.00  0.00     0.022 A 
ENDBRANCH   9  10
BRANCH   1  22
HETATM   22  C   UNL     1       7.728  11.905   3.233  1.00  0.00    -0.021 C 
BRANCH  22  23
HETATM   23  N   UNL     1       8.757  12.386   3.420  1.00  0.00    -0.236 N 
ATOM     24  HN  UNL     1       9.532  11.742   3.260  1.00  0.00     0.189 HD
BRANCH  23  25
HETATM   25  S   UNL     1       9.239  13.833   3.874  1.00  0.00     0.327 S 
HETATM   26 CL   UNL     1       9.513  14.767   2.245  1.00  0.00     0.042 Cl
HETATM   27  O   UNL     1       8.181  14.523   4.576  1.00  0.00    -0.188 OA
HETATM   28  O   UNL     1      10.513  13.802   4.549  1.00  0.00    -0.188 OA
ENDBRANCH  23  25
ENDBRANCH  22  23
ENDBRANCH   1  22
TORSDOF 4
ENDMDL
MODEL 9
REMARK VINA RESULT:    -6.961     20.615     22.757
REMARK INTER + INTRA:          -9.175
REMARK INTER:                  -8.570
REMARK INTRA:                  -0.604
REMARK UNBOUND:                -0.587
REMARK  4 active torsions:
REMARK  status: ('A' for Active; 'I' for Inactive)
REMARK    1  A    between atoms: S_2  and  N_5 
REMARK    2  A    between atoms: N_5  and  C_7 
REMARK    3  A    between atoms: C_7  and  C_8 
REMARK    4  A    between atoms: C_16  and  C_17 
REMARK       I    between atoms: C_17  and  N_19 
ROOT
HETATM    1  C   UNL     1       5.595   9.965   3.952  1.00  0.00     0.041 A 
HETATM    2  C   UNL     1       5.243  11.243   3.586  1.00  0.00     0.080 A 
HETATM    3  C   UNL     1       4.794  11.680   2.158  1.00  0.00     0.000 C 
HETATM    4  C   UNL     1       4.189  12.542   1.931  1.00  0.00     0.015 C 
HETATM    5  C   UNL     1       3.632  13.235   2.752  1.00  0.00     0.087 C 
HETATM    6  N   UNL     1       3.590  13.003   4.020  1.00  0.00    -0.377 N 
ATOM      7  HN  UNL     1       3.031  13.518   4.700  1.00  0.00     0.164 HD
HETATM    8  C   UNL     1       4.244  12.172   4.240  1.00  0.00     0.085 C 
HETATM    9  C   UNL     1       6.451  11.198   3.843  1.00  0.00     0.050 A 
ENDROOT
BRANCH   9  10
HETATM   10  C   UNL     1       7.745  11.825   4.079  1.00  0.00     0.256 C 
HETATM   11  O   UNL     1       8.662  11.201   4.531  1.00  0.00    -0.268 OA
HETATM   12  N   UNL     1       7.641  13.064   3.661  1.00  0.00    -0.308 N 
HETATM   13  C   UNL     1       8.654  13.883   3.700  1.00  0.00     0.122 A 
ATOM     14  HN  UNL     1       6.747  13.395   3.297  1.00  0.00     0.170 HD
HETATM   15  N   UNL     1       9.757  13.742   2.975  1.00  0.00    -0.286 N 
HETATM   16  C   UNL     1       8.601  15.042   4.574  1.00  0.00     0.051 A 
HETATM   17  N   UNL     1      10.726  14.532   2.857  1.00  0.00    -0.310 N 
ATOM     18  HN  UNL     1       9.826  12.874   2.442  1.00  0.00     0.188 HD
HETATM   19  C   UNL     1      10.476  15.336   3.642  1.00  0.00     0.107 A 
ATOM     20  HN  UNL     1      11.528  14.475   2.229  1.00  0.00     0.186 HD
HETATM   21  C   UNL     1       9.643  15.708   4.402  1.00  0.00     0.022 A 
ENDBRANCH   9  10
BRANCH   1  22
HETATM   22  C   UNL     1       5.300   8.785   4.181  1.00  0.00    -0.021 C 
BRANCH  22  23
HETATM   23  N   UNL     1       5.001   7.674   4.229  1.00  0.00    -0.236 N 
ATOM     24  HN  UNL     1       5.673   7.104   4.744  1.00  0.00     0.189 HD
BRANCH  23  25
HETATM   25  S   UNL     1       3.773   6.830   3.671  1.00  0.00     0.327 S 
HETATM   26 CL   UNL     1       3.728   5.284   4.770  1.00  0.00     0.042 Cl
HETATM   27  O   UNL     1       2.530   7.535   3.893  1.00  0.00    -0.188 OA
HETATM   28  O   UNL     1       3.991   6.369   2.322  1.00  0.00    -0.188 OA
ENDBRANCH  23  25
ENDBRANCH  22  23
ENDBRANCH   1  22
TORSDOF 4
ENDMDL
