stable:False satoms:8 tatoms:24 sratio:0.3333333333333333
  -OEChem-08062410173D

 33 34  0     1  0  0  0  0  0999 V2000
   -6.1042   -5.4367  -26.1050 Cl  0  0  0  0  0  0  0  0  0  0  0  0
   -7.9400   -4.9734  -25.9843 S   0  0  0  0  0  0  0  0  0  0  0  0
   -8.7178   -6.1597  -25.9138 O   0  0  0  0  0  0  0  0  0  0  0  0
   -8.2037   -4.1849  -27.1039 O   0  0  0  0  0  0  0  0  0  0  0  0
   -7.9328   -4.1877  -24.5910 N   0  0  0  0  0  0  0  0  0  0  0  0
   -8.8236   -3.3546  -24.3082 C   0  0  0  0  0  0  0  0  0  0  0  0
   -9.3325   -2.5817  -23.8974 C   0  0  0  0  0  0  0  0  0  0  0  0
  -10.2012   -1.7768  -23.3737 C   0  0  0  0  0  0  0  0  0  0  0  0
  -11.5408   -0.7641  -25.3469 H   0  0  0  0  0  0  0  0  0  0  0  0
  -12.1464   -0.1045  -24.9018 N   0  3  0  0  0  0  0  0  0  0  0  0
  -12.8482   -0.6557  -24.1802 C   0  0  0  0  0  0  0  0  0  0  0  0
  -12.9719   -1.5228  -22.9853 S   0  0  0  0  0  0  0  0  0  0  0  0
  -11.3555   -1.5641  -23.0325 C   0  0  2  0  0  0  0  0  0  0  0  0
  -10.1342   -0.8824  -22.5521 C   0  0  0  0  0  0  0  0  0  0  0  0
   -9.4331   -0.0477  -21.5647 C   0  0  0  0  0  0  0  0  0  0  0  0
   -9.9759    0.8602  -21.1106 O   0  0  0  0  0  0  0  0  0  0  0  0
   -8.2606   -0.5306  -21.3371 N   0  0  0  0  0  0  0  0  0  0  0  0
   -7.6287   -0.1085  -20.2301 C   0  0  0  0  0  0  0  0  0  0  0  0
   -7.9725   -0.1553  -19.0029 N   0  0  0  0  0  0  0  0  0  0  0  0
   -7.4908    0.1663  -17.9200 N   0  0  0  0  0  0  0  0  0  0  0  0
   -6.4560    0.6745  -18.2538 C   0  0  0  0  0  0  0  0  0  0  0  0
   -5.9420    0.7488  -19.3334 C   0  0  0  0  0  0  0  0  0  0  0  0
   -6.2651    0.3968  -20.4552 C   0  0  0  0  0  0  0  0  0  0  0  0
   -5.7201    0.4180  -21.3702 H   0  0  0  0  0  0  0  0  0  0  0  0
   -7.0626   -3.6968  -24.5477 H   0  0  0  0  0  0  0  0  0  0  0  0
  -12.6878    0.3715  -25.5948 H   0  0  0  0  0  0  0  0  0  0  0  0
  -13.4077   -1.2662  -24.9043 H   0  0  0  0  0  0  0  0  0  0  0  0
  -13.4718    0.1898  -23.8544 H   0  0  0  0  0  0  0  0  0  0  0  0
  -11.3106   -2.3095  -22.2247 H   0  0  0  0  0  0  0  0  0  0  0  0
   -7.8393   -1.1915  -21.9581 H   0  0  0  0  0  0  0  0  0  0  0  0
   -5.8994    1.1389  -17.4532 H   0  0  0  0  0  0  0  0  0  0  0  0
   -4.9784    1.2357  -19.3072 H   0  0  0  0  0  0  0  0  0  0  0  0
  -11.5991    0.5595  -24.3923 H   0  0  0  0  0  0  0  0  0  0  0  0
 20 21  2  0  0  0  0
 19 20  1  0  0  0  0
 21 22  1  0  0  0  0
 18 19  2  0  0  0  0
 22 23  2  0  0  0  0
 18 23  1  0  0  0  0
 17 18  1  0  0  0  0
 23 24  1  0  0  0  0
 15 16  2  0  0  0  0
 15 17  1  0  0  0  0
 14 15  1  0  0  0  0
 13 14  1  0  0  0  0
  8 14  2  0  0  0  0
 12 13  1  0  0  0  0
 11 12  1  0  0  0  0
  8 13  1  0  0  0  0
  7  8  1  0  0  0  0
 10 11  1  0  0  0  0
  6  7  3  0  0  0  0
  5  6  1  0  0  0  0
  9 10  1  0  0  0  0
  2  5  1  0  0  0  0
  2  3  2  0  0  0  0
  1  2  1  0  0  0  0
  2  4  2  0  0  0  0
  5 25  1  0  0  0  0
 10 26  1  0  0  0  0
 11 27  1  0  0  0  0
 11 28  1  0  0  0  0
 13 29  1  0  0  0  0
 17 30  1  0  0  0  0
 21 31  1  0  0  0  0
 22 32  1  0  0  0  0
 10 33  1  0  0  0  0
M  CHG  1  10   1
M  END
> <Chemgauss4>
-11.753286

$$$$
