stable:False satoms:8 tatoms:24 sratio:0.3333333333333333
  -OEChem-08062410173D

 33 34  0     1  0  0  0  0  0999 V2000
    6.1042   -5.4369   26.1051 Cl  0  0  0  0  0  0  0  0  0  0  0  0
    7.9399   -4.9736   25.9844 S   0  0  0  0  0  0  0  0  0  0  0  0
    8.7178   -6.1599   25.9139 O   0  0  0  0  0  0  0  0  0  0  0  0
    8.2037   -4.1851   27.1040 O   0  0  0  0  0  0  0  0  0  0  0  0
    7.9328   -4.1879   24.5911 N   0  0  0  0  0  0  0  0  0  0  0  0
    8.8236   -3.3548   24.3083 C   0  0  0  0  0  0  0  0  0  0  0  0
    9.3325   -2.5819   23.8975 C   0  0  0  0  0  0  0  0  0  0  0  0
   10.2012   -1.7770   23.3738 C   0  0  0  0  0  0  0  0  0  0  0  0
   11.5408   -0.7643   25.3470 H   0  0  0  0  0  0  0  0  0  0  0  0
   12.1464   -0.1047   24.9018 N   0  3  0  0  0  0  0  0  0  0  0  0
   12.8482   -0.6559   24.1803 C   0  0  0  0  0  0  0  0  0  0  0  0
   12.9719   -1.5230   22.9854 S   0  0  0  0  0  0  0  0  0  0  0  0
   11.3555   -1.5643   23.0326 C   0  0  2  0  0  0  0  0  0  0  0  0
   10.1341   -0.8826   22.5522 C   0  0  0  0  0  0  0  0  0  0  0  0
    9.4331   -0.0479   21.5648 C   0  0  0  0  0  0  0  0  0  0  0  0
    9.9759    0.8600   21.1107 O   0  0  0  0  0  0  0  0  0  0  0  0
    8.2606   -0.5308   21.3372 N   0  0  0  0  0  0  0  0  0  0  0  0
    7.6287   -0.1087   20.2302 C   0  0  0  0  0  0  0  0  0  0  0  0
    7.9725   -0.1555   19.0030 N   0  0  0  0  0  0  0  0  0  0  0  0
    7.4908    0.1661   17.9201 N   0  0  0  0  0  0  0  0  0  0  0  0
    6.4559    0.6743   18.2539 C   0  0  0  0  0  0  0  0  0  0  0  0
    5.9420    0.7486   19.3335 C   0  0  0  0  0  0  0  0  0  0  0  0
    6.2651    0.3966   20.4553 C   0  0  0  0  0  0  0  0  0  0  0  0
    5.7201    0.4178   21.3703 H   0  0  0  0  0  0  0  0  0  0  0  0
    7.0626   -3.6970   24.5478 H   0  0  0  0  0  0  0  0  0  0  0  0
   12.6878    0.3713   25.5949 H   0  0  0  0  0  0  0  0  0  0  0  0
   13.4076   -1.2664   24.9044 H   0  0  0  0  0  0  0  0  0  0  0  0
   13.4718    0.1897   23.8545 H   0  0  0  0  0  0  0  0  0  0  0  0
   11.3106   -2.3097   22.2248 H   0  0  0  0  0  0  0  0  0  0  0  0
    7.8393   -1.1917   21.9582 H   0  0  0  0  0  0  0  0  0  0  0  0
    5.8994    1.1388   17.4533 H   0  0  0  0  0  0  0  0  0  0  0  0
    4.9784    1.2356   19.3073 H   0  0  0  0  0  0  0  0  0  0  0  0
   11.5991    0.5594   24.3924 H   0  0  0  0  0  0  0  0  0  0  0  0
 20 21  2  0  0  0  0
 19 20  1  0  0  0  0
 21 22  1  0  0  0  0
 18 19  2  0  0  0  0
 22 23  2  0  0  0  0
 18 23  1  0  0  0  0
 17 18  1  0  0  0  0
 23 24  1  0  0  0  0
 15 16  2  0  0  0  0
 15 17  1  0  0  0  0
 14 15  1  0  0  0  0
 13 14  1  0  0  0  0
  8 14  2  0  0  0  0
 12 13  1  0  0  0  0
 11 12  1  0  0  0  0
  8 13  1  0  0  0  0
  7  8  1  0  0  0  0
 10 11  1  0  0  0  0
  6  7  3  0  0  0  0
  5  6  1  0  0  0  0
  9 10  1  0  0  0  0
  2  5  1  0  0  0  0
  2  3  2  0  0  0  0
  1  2  1  0  0  0  0
  2  4  2  0  0  0  0
  5 25  1  0  0  0  0
 10 26  1  0  0  0  0
 11 27  1  0  0  0  0
 11 28  1  0  0  0  0
 13 29  1  0  0  0  0
 17 30  1  0  0  0  0
 21 31  1  0  0  0  0
 22 32  1  0  0  0  0
 10 33  1  0  0  0  0
M  CHG  1  10   1
M  END
> <Chemgauss4>
-11.752621

$$$$
