stable:False satoms:7 tatoms:24 sratio:0.2916666666666667
  -OEChem-07092417473D

 24 25  0     1  0  0  0  0  0999 V2000
    6.7036   -4.8166   26.3353 C   0  0  0  0  0  0  0  0  0  0  0  0
    8.1980   -4.3206   26.1014 S   0  0  0  0  0  0  0  0  0  0  0  0
    9.1056   -5.4414   26.0212 O   0  0  0  0  0  0  0  0  0  0  0  0
    8.5944   -3.4194   27.1418 O   0  0  0  0  0  0  0  0  0  0  0  0
    8.1491   -3.5393   24.6402 N   0  0  0  0  0  0  0  0  0  0  0  0
    8.9318   -2.8955   24.1240 C   0  0  0  0  0  0  0  0  0  0  0  0
    9.4202   -1.9354   23.4684 C   0  0  0  0  0  0  0  0  0  0  0  0
   10.3086   -1.0498   23.2769 C   0  0  2  0  0  0  0  0  0  0  0  0
   11.0145   -0.0526   24.3018 C   0  0  0  0  0  0  0  0  0  0  0  0
   12.0232    0.2651   24.2849 C   0  0  0  0  0  0  0  0  0  0  0  0
   13.1442   -0.2089   23.4939 C   0  0  0  0  0  0  0  0  0  0  0  0
   12.7051   -1.2410   22.6770 C   0  0  0  0  0  0  0  0  0  0  0  0
   11.8684   -1.7287   22.5082 C   0  0  0  0  0  0  0  0  0  0  0  0
    9.6381   -0.6215   22.3630 C   0  0  3  0  0  0  0  0  0  0  0  0
    9.0273    0.0371   21.3630 C   0  0  0  0  0  0  0  0  0  0  0  0
    9.5612    0.9770   20.9988 O   0  0  0  0  0  0  0  0  0  0  0  0
    7.9273   -0.5873   21.0616 N   0  0  0  0  0  0  0  0  0  0  0  0
    7.2254   -0.1137   20.1922 C   0  0  0  0  0  0  0  0  0  0  0  0
    7.1969    0.0340   18.9430 C   0  0  0  0  0  0  0  0  0  0  0  0
    6.7941    0.3132   17.7765 N   0  0  0  0  0  0  0  0  0  0  0  0
    5.7181    0.8361   18.2621 C   0  0  0  0  0  0  0  0  0  0  0  0
    5.2535    0.9619   19.4590 C   0  0  0  0  0  0  0  0  0  0  0  0
    5.7644    0.5721   20.5811 C   0  0  0  0  0  0  0  0  0  0  0  0
    5.3112    0.6851   21.9212 C   0  0  0  0  0  0  0  0  0  0  0  0
 20 21  2  0  0  0  0
 19 20  1  0  0  0  0
 21 22  1  0  0  0  0
 18 19  2  0  0  0  0
 22 23  2  0  0  0  0
 18 23  1  0  0  0  0
 17 18  1  0  0  0  0
 23 24  1  0  0  0  0
 15 16  2  0  0  0  0
 15 17  1  0  0  0  0
 14 15  1  0  0  0  0
  8 14  1  0  0  0  0
  7 14  1  0  0  0  0
 12 13  2  0  0  0  0
 11 12  1  0  0  0  0
  7  8  1  0  0  0  0
  8  9  1  0  0  0  0
  6  7  2  0  0  0  0
 10 11  1  0  0  0  0
  5  6  1  0  0  0  0
  9 10  2  0  0  0  0
  2  5  1  0  0  0  0
  2  3  2  0  0  0  0
  1  2  1  0  0  0  0
  2  4  2  0  0  0  0
M  END
> <Shapegauss>
-286.871460

$$$$
