stable:False satoms:12 tatoms:24 sratio:0.5
  -OEChem-07092417393D

 24 25  0     1  0  0  0  0  0999 V2000
    7.0521   -4.5505   26.4317 H   0  0  0  0  0  0  0  0  0  0  0  0
    8.1791   -4.2982   26.1144 C   0  0  0  0  0  0  0  0  0  0  0  0
    8.7145   -5.2432   25.9982 H   0  0  0  0  0  0  0  0  0  0  0  0
    8.6220   -3.7181   26.9145 H   0  0  0  0  0  0  0  0  0  0  0  0
    8.1063   -3.5562   24.9305 O   0  0  0  0  0  0  0  0  0  0  0  0
    9.1733   -3.1731   24.4273 C   0  0  0  0  0  0  0  0  0  0  0  0
    9.8798   -2.4731   23.8413 C   0  0  0  0  0  0  0  0  0  0  0  0
   10.2553   -1.4263   23.1751 C   0  0  1  0  0  0  0  0  0  0  0  0
   11.2410   -0.0669   23.1303 C   0  0  1  0  0  0  0  0  0  0  0  0
   12.7822    0.6538   24.2053 H   0  0  0  0  0  0  0  0  0  0  0  0
   12.4523   -0.0039   23.4792 C   0  5  0  0  0  0  0  0  0  0  0  0
   13.0890   -0.7571   23.0731 H   0  0  0  0  0  0  0  0  0  0  0  0
   11.2100   -2.1906   23.3223 O   0  0  0  0  0  0  0  0  0  0  0  0
   10.0807   -0.3049   22.5150 C   0  0  3  0  0  0  0  0  0  0  0  0
    9.1116    0.2619   21.4280 C   0  0  0  0  0  0  0  0  0  0  0  0
    9.4847    1.2321   20.8456 O   0  0  0  0  0  0  0  0  0  0  0  0
    7.9520   -0.4211   21.1791 N   0  0  0  0  0  0  0  0  0  0  0  0
    7.0180   -0.0148   20.4265 C   0  0  0  0  0  0  0  0  0  0  0  0
    6.6521    0.1097   18.6131 C   0  0  0  0  0  0  0  0  0  0  0  0
    7.0744   -0.1906   17.5846 O   0  0  0  0  0  0  0  0  0  0  0  0
    4.7732    1.0632   18.5684 H   0  0  0  0  0  0  0  0  0  0  0  0
    5.5427    0.6778   19.1743 C   0  0  0  0  0  0  0  0  0  0  0  0
    5.8373    0.4768   20.4778 C   0  0  0  0  0  0  0  0  0  0  0  0
    5.3004    0.6231   21.4413 H   0  0  0  0  0  0  0  0  0  0  0  0
 19 20  2  0  0  0  0
 21 22  1  0  0  0  0
 19 22  1  0  0  0  0
 22 23  2  0  0  0  0
 18 23  1  0  0  0  0
 17 18  1  0  0  0  0
 23 24  1  0  0  0  0
 15 16  2  0  0  0  0
 15 17  1  0  0  0  0
 14 15  1  0  0  0  0
  9 14  1  0  0  0  0
  8 14  1  0  0  0  0
 11 12  1  0  0  0  0
  8  9  1  0  0  0  0
  9 11  1  0  0  0  0
  8 13  1  0  0  0  0
  7  8  1  0  0  0  0
  7 13  1  0  0  0  0
 10 11  1  0  0  0  0
  6  7  2  0  0  0  0
  5  6  1  0  0  0  0
  2  5  1  0  0  0  0
  2  3  1  0  0  0  0
  1  2  1  0  0  0  0
  2  4  1  0  0  0  0
M  CHG  1  11  -1
M  END
> <Shapegauss>
-196.454208

$$$$
