stable:False satoms:12 tatoms:24 sratio:0.5
  -OEChem-08062403383D

 32 33  0     1  0  0  0  0  0999 V2000
    5.5706   -4.3527   26.1142 H   0  0  0  0  0  0  0  0  0  0  0  0
    6.7423   -4.3280   25.8674 C   0  0  0  0  0  0  0  0  0  0  0  0
    7.0760   -5.3577   25.7205 H   0  0  0  0  0  0  0  0  0  0  0  0
    7.2473   -3.8939   26.7215 H   0  0  0  0  0  0  0  0  0  0  0  0
    6.8959   -3.5304   24.7283 O   0  0  0  0  0  0  0  0  0  0  0  0
    8.0473   -3.3564   24.3011 C   0  0  0  0  0  0  0  0  0  0  0  0
    8.9174   -2.7930   23.7931 C   0  0  0  0  0  0  0  0  0  0  0  0
    9.5410   -1.8174   23.2100 C   0  0  1  0  0  0  0  0  0  0  0  0
   10.7882   -0.6953   23.2948 C   0  0  1  0  0  0  0  0  0  0  0  0
   12.6830   -0.5087   22.9741 H   0  0  0  0  0  0  0  0  0  0  0  0
   11.9631   -0.9057   23.7049 C   0  0  0  0  0  0  0  0  0  0  0  0
   12.1094   -0.4044   24.6730 H   0  0  0  0  0  0  0  0  0  0  0  0
   10.3058   -2.7717   23.3568 O   0  0  0  0  0  0  0  0  0  0  0  0
    9.6426   -0.6535   22.6110 C   0  0  3  0  0  0  0  0  0  0  0  0
    8.8790    0.1569   21.5147 C   0  0  0  0  0  0  0  0  0  0  0  0
    9.4793    1.0541   21.0104 O   0  0  0  0  0  0  0  0  0  0  0  0
    7.6199   -0.2538   21.1694 N   0  0  0  0  0  0  0  0  0  0  0  0
    6.8372    0.3762   20.3985 C   0  0  0  0  0  0  0  0  0  0  0  0
    6.6142    0.6632   18.5803 C   0  0  0  0  0  0  0  0  0  0  0  0
    7.0257    0.3314   17.5572 O   0  0  0  0  0  0  0  0  0  0  0  0
    4.9800    1.9918   18.5026 H   0  0  0  0  0  0  0  0  0  0  0  0
    5.6152    1.4240   19.1206 C   0  0  0  0  0  0  0  0  0  0  0  0
    5.7833    1.1021   20.4223 C   0  0  0  0  0  0  0  0  0  0  0  0
    5.2318    1.3109   21.3658 H   0  0  0  0  0  0  0  0  0  0  0  0
    8.5178   -4.2936   24.5591 H   0  0  0  0  0  0  0  0  0  0  0  0
   10.4151   -0.1962   24.2013 H   0  0  0  0  0  0  0  0  0  0  0  0
   12.1212   -1.9877   23.8248 H   0  0  0  0  0  0  0  0  0  0  0  0
    9.1175   -0.1312   23.4243 H   0  0  0  0  0  0  0  0  0  0  0  0
    7.2932   -1.1167   21.5551 H   0  0  0  0  0  0  0  0  0  0  0  0
    6.5252   -0.4260   19.7135 H   0  0  0  0  0  0  0  0  0  0  0  0
    7.5422    1.0449   19.8830 H   0  0  0  0  0  0  0  0  0  0  0  0
    7.2123    0.2334   19.3702 H   0  0  0  0  0  0  0  0  0  0  0  0
 19 20  2  0  0  0  0
 21 22  1  0  0  0  0
 19 22  1  0  0  0  0
 22 23  2  0  0  0  0
 18 23  1  0  0  0  0
 17 18  1  0  0  0  0
 23 24  1  0  0  0  0
 15 16  2  0  0  0  0
 15 17  1  0  0  0  0
 14 15  1  0  0  0  0
  9 14  1  0  0  0  0
  8 14  1  0  0  0  0
 11 12  1  0  0  0  0
  8  9  1  0  0  0  0
  9 11  1  0  0  0  0
  8 13  1  0  0  0  0
  7  8  1  0  0  0  0
  7 13  1  0  0  0  0
 10 11  1  0  0  0  0
  6  7  2  0  0  0  0
  5  6  1  0  0  0  0
  2  5  1  0  0  0  0
  2  3  1  0  0  0  0
  1  2  1  0  0  0  0
  2  4  1  0  0  0  0
  6 25  1  0  0  0  0
  9 26  1  0  0  0  0
 11 27  1  0  0  0  0
 14 28  1  0  0  0  0
 17 29  1  0  0  0  0
 18 30  1  0  0  0  0
 18 31  1  0  0  0  0
 19 32  1  0  0  0  0
M  END
> <Chemgauss4>
-7.293383

$$$$
