stable:False satoms:12 tatoms:24 sratio:0.5
  -OEChem-08062403383D

 32 33  0     1  0  0  0  0  0999 V2000
   -5.5527   -4.5757  -26.0526 H   0  0  0  0  0  0  0  0  0  0  0  0
   -6.7244   -4.5511  -25.8058 C   0  0  0  0  0  0  0  0  0  0  0  0
   -7.0581   -5.5808  -25.6589 H   0  0  0  0  0  0  0  0  0  0  0  0
   -7.2294   -4.1169  -26.6598 H   0  0  0  0  0  0  0  0  0  0  0  0
   -6.8780   -3.7535  -24.6666 O   0  0  0  0  0  0  0  0  0  0  0  0
   -8.0294   -3.5794  -24.2395 C   0  0  0  0  0  0  0  0  0  0  0  0
   -8.8995   -3.0160  -23.7315 C   0  0  0  0  0  0  0  0  0  0  0  0
   -9.5231   -2.0404  -23.1484 C   0  0  1  0  0  0  0  0  0  0  0  0
  -10.7703   -0.9184  -23.2332 C   0  0  1  0  0  0  0  0  0  0  0  0
  -12.6651   -0.7318  -22.9124 H   0  0  0  0  0  0  0  0  0  0  0  0
  -11.9452   -1.1288  -23.6433 C   0  0  0  0  0  0  0  0  0  0  0  0
  -12.0915   -0.6275  -24.6114 H   0  0  0  0  0  0  0  0  0  0  0  0
  -10.2879   -2.9948  -23.2952 O   0  0  0  0  0  0  0  0  0  0  0  0
   -9.6247   -0.8766  -22.5494 C   0  0  3  0  0  0  0  0  0  0  0  0
   -8.8611   -0.0662  -21.4530 C   0  0  0  0  0  0  0  0  0  0  0  0
   -9.4614    0.8310  -20.9488 O   0  0  0  0  0  0  0  0  0  0  0  0
   -7.6020   -0.4769  -21.1078 N   0  0  0  0  0  0  0  0  0  0  0  0
   -6.8193    0.1531  -20.3369 C   0  0  0  0  0  0  0  0  0  0  0  0
   -6.5963    0.4402  -18.5187 C   0  0  0  0  0  0  0  0  0  0  0  0
   -7.0078    0.1083  -17.4956 O   0  0  0  0  0  0  0  0  0  0  0  0
   -4.9621    1.7687  -18.4409 H   0  0  0  0  0  0  0  0  0  0  0  0
   -5.5973    1.2009  -19.0589 C   0  0  0  0  0  0  0  0  0  0  0  0
   -5.7654    0.8791  -20.3607 C   0  0  0  0  0  0  0  0  0  0  0  0
   -5.2139    1.0879  -21.3042 H   0  0  0  0  0  0  0  0  0  0  0  0
   -8.4999   -4.5167  -24.4974 H   0  0  0  0  0  0  0  0  0  0  0  0
  -10.3972   -0.4193  -24.1397 H   0  0  0  0  0  0  0  0  0  0  0  0
  -12.1033   -2.2108  -23.7632 H   0  0  0  0  0  0  0  0  0  0  0  0
   -9.0996   -0.3543  -23.3627 H   0  0  0  0  0  0  0  0  0  0  0  0
   -7.2753   -1.3397  -21.4935 H   0  0  0  0  0  0  0  0  0  0  0  0
   -6.5073   -0.6490  -19.6519 H   0  0  0  0  0  0  0  0  0  0  0  0
   -7.5243    0.8219  -19.8214 H   0  0  0  0  0  0  0  0  0  0  0  0
   -7.1944    0.0104  -19.3086 H   0  0  0  0  0  0  0  0  0  0  0  0
 19 20  2  0  0  0  0
 21 22  1  0  0  0  0
 19 22  1  0  0  0  0
 22 23  2  0  0  0  0
 18 23  1  0  0  0  0
 17 18  1  0  0  0  0
 23 24  1  0  0  0  0
 15 16  2  0  0  0  0
 15 17  1  0  0  0  0
 14 15  1  0  0  0  0
  9 14  1  0  0  0  0
  8 14  1  0  0  0  0
 11 12  1  0  0  0  0
  8  9  1  0  0  0  0
  9 11  1  0  0  0  0
  8 13  1  0  0  0  0
  7  8  1  0  0  0  0
  7 13  1  0  0  0  0
 10 11  1  0  0  0  0
  6  7  2  0  0  0  0
  5  6  1  0  0  0  0
  2  5  1  0  0  0  0
  2  3  1  0  0  0  0
  1  2  1  0  0  0  0
  2  4  1  0  0  0  0
  6 25  1  0  0  0  0
  9 26  1  0  0  0  0
 11 27  1  0  0  0  0
 14 28  1  0  0  0  0
 17 29  1  0  0  0  0
 18 30  1  0  0  0  0
 18 31  1  0  0  0  0
 19 32  1  0  0  0  0
M  END
> <Chemgauss4>
-7.283584

$$$$
