stable:False satoms:17 tatoms:24 sratio:0.7083333333333334
  -OEChem-07092417373D

 24 24  0     0  0  0  0  0  0999 V2000
    8.3093   -4.0825   25.9220 C   0  0  0  0  0  0  0  0  0  0  0  0
    7.3620   -4.5604   26.0413 H   0  0  0  0  0  0  0  0  0  0  0  0
    9.0789   -4.8698   25.9783 H   0  0  0  0  0  0  0  0  0  0  0  0
    8.4760   -3.3855   26.7497 H   0  0  0  0  0  0  0  0  0  0  0  0
    8.3734   -3.4413   24.6386 N   0  3  0  0  0  0  0  0  0  0  0  0
    9.1721   -2.3282   24.3920 C   0  3  0  0  0  0  0  0  0  0  0  0
    9.3500   -1.6828   23.4117 C   0  0  0  0  0  0  0  0  0  0  0  0
   11.9617   -0.8114   23.4641 C   0  0  0  0  0  0  0  0  0  0  0  0
    9.9256   -1.5483   24.9710 H   0  0  0  0  0  0  0  0  0  0  0  0
   11.5903   -0.2148   24.3098 H   0  0  0  0  0  0  0  0  0  0  0  0
   12.8206   -0.2605   23.0710 H   0  0  0  0  0  0  0  0  0  0  0  0
   12.3652   -1.7667   23.7660 H   0  0  0  0  0  0  0  0  0  0  0  0
   11.1160   -1.0979   22.3759 O   0  0  0  0  0  0  0  0  0  0  0  0
    9.8289   -0.9410   22.4306 C   0  0  0  0  0  0  0  0  0  0  0  0
    9.0779   -0.0416   21.5042 C   0  0  0  0  0  0  0  0  0  0  0  0
    9.5747    1.0108   21.1540 O   0  0  0  0  0  0  0  0  0  0  0  0
    7.8613   -0.4665   21.1326 N   0  0  0  0  0  0  0  0  0  0  0  0
    7.1244   -0.0191   20.0988 C   0  0  0  0  0  0  0  0  0  0  0  0
    7.4109   -0.1700   18.7908 N   0  0  0  0  0  0  0  0  0  0  0  0
    6.6525    0.3188   17.8636 N   0  0  0  0  0  0  0  0  0  0  0  0
    5.6361    0.9980   18.1029 N   0  0  0  0  0  0  0  0  0  0  0  0
    5.2322    1.0576   19.3635 O   0  0  0  0  0  0  0  0  0  0  0  0
    5.8547    0.5255   20.3900 C   0  0  0  0  0  0  0  0  0  0  0  0
    5.4295    0.4874   21.3743 H   0  0  0  0  0  0  0  0  0  0  0  0
 20 21  1  0  0  0  0
 19 20  2  0  0  0  0
 21 22  1  0  0  0  0
 18 19  1  0  0  0  0
 22 23  1  0  0  0  0
 18 23  2  0  0  0  0
 17 18  1  0  0  0  0
 23 24  1  0  0  0  0
 15 17  1  0  0  0  0
 15 16  2  0  0  0  0
 14 15  1  0  0  0  0
 13 14  1  0  0  0  0
  8 13  1  0  0  0  0
  7 14  2  0  0  0  0
  8 11  1  0  0  0  0
  6  7  1  0  0  0  0
  8 12  1  0  0  0  0
  8 10  1  0  0  0  0
  5  6  1  0  0  0  0
  6  9  1  0  0  0  0
  1  5  1  0  0  0  0
  1  3  1  0  0  0  0
  1  2  1  0  0  0  0
  1  4  1  0  0  0  0
M  CHG  2   5   1   6   1
M  END
> <Shapegauss>
-195.024902

$$$$
