REMARK  4 active torsions:
REMARK  status: ('A' for Active; 'I' for Inactive)
REMARK    1  A    between atoms: N_2  and  C_5 
REMARK    2  A    between atoms: C_7  and  C_14 
REMARK    3  A    between atoms: C_14  and  C_15 
REMARK    4  A    between atoms: C_15  and  O_17 
ROOT
HETATM    1 CL   UNL     1       5.961  -3.388  24.812  1.00  0.00     0.000 Cl
ENDROOT
TORSDOF 4
