stable:False satoms:19 tatoms:24 sratio:0.7916666666666666
  -OEChem-07092417323D

 24 25  0     0  0  0  0  0  0999 V2000
    7.6896   -3.7519   25.3767 H   0  0  0  0  0  0  0  0  0  0  0  0
    7.7077   -2.9613   24.6342 C   0  3  0  0  0  0  0  0  0  0  0  0
    6.9794   -1.8962   24.8405 N   0  0  0  0  0  0  0  0  0  0  0  0
   11.5125   -0.7749   23.9369 H   0  0  0  0  0  0  0  0  0  0  0  0
    8.4453   -3.0522   23.4551 C   0  0  0  0  0  0  0  0  0  0  0  0
    8.8024   -4.0086   23.1533 H   0  0  0  0  0  0  0  0  0  0  0  0
    7.0348   -0.9766   23.8273 C   0  0  0  0  0  0  0  0  0  0  0  0
   11.1418   -1.9964   22.8303 H   0  0  0  0  0  0  0  0  0  0  0  0
    8.2706   -0.7380   23.2253 C   0  0  0  0  0  0  0  0  0  0  0  0
    6.9259    0.8374   21.9204 H   0  0  0  0  0  0  0  0  0  0  0  0
    8.7411   -1.8654   22.6670 C   0  0  0  0  0  0  0  0  0  0  0  0
   12.2719   -0.8851   21.0747 H   0  0  0  0  0  0  0  0  0  0  0  0
    9.1667   -1.5177   21.2150 C   0  0  0  0  0  0  0  0  0  0  0  0
   11.2150   -0.9073   22.8603 C   0  0  0  0  0  0  0  0  0  0  0  0
   11.3684   -0.3886   21.4554 C   0  0  0  0  0  0  0  0  0  0  0  0
   10.7279    0.2428   22.4267 O   0  0  0  0  0  0  0  0  0  0  0  0
    8.7230    0.2335   23.1052 H   0  0  0  0  0  0  0  0  0  0  0  0
    9.7679   -1.7863   20.2578 O   0  0  0  0  0  0  0  0  0  0  0  0
   10.9105    0.0010   20.5042 H   0  0  0  0  0  0  0  0  0  0  0  0
    8.6909   -0.7651   20.3467 O   0  0  0  0  0  0  0  0  0  0  0  0
    5.1407    0.5309   21.6395 H   0  0  0  0  0  0  0  0  0  0  0  0
    6.3043   -0.7055   21.2619 H   0  0  0  0  0  0  0  0  0  0  0  0
    6.0943    0.1168   21.9569 C   0  0  0  0  0  0  0  0  0  0  0  0
    5.9515   -0.2753   23.3255 O   0  0  0  0  0  0  0  0  0  0  0  0
 18 20  1  0  0  0  0
 13 18  1  0  0  0  0
 13 20  1  0  0  0  0
 15 19  1  0  0  0  0
 12 15  1  0  0  0  0
 11 13  1  0  0  0  0
 22 23  1  0  0  0  0
 15 16  1  0  0  0  0
 14 15  1  0  0  0  0
 21 23  1  0  0  0  0
 10 23  1  0  0  0  0
 23 24  1  0  0  0  0
 14 16  1  0  0  0  0
  9 11  1  0  0  0  0
  5 11  2  0  0  0  0
  8 14  1  0  0  0  0
  4 14  1  0  0  0  0
  9 17  1  0  0  0  0
  5  6  1  0  0  0  0
  7  9  2  0  0  0  0
  7 24  1  0  0  0  0
  2  5  1  0  0  0  0
  3  7  1  0  0  0  0
  2  3  1  0  0  0  0
  1  2  1  0  0  0  0
M  CHG  1   2   1
M  END
> <Shapegauss>
-101.814026

$$$$
