stable:False satoms:5 tatoms:24 sratio:0.20833333333333334
  -OEChem-07092417473D

 24 25  0     1  0  0  0  0  0999 V2000
    6.5504   -4.9007   26.3298 C   0  0  0  0  0  0  0  0  0  0  0  0
    8.1696   -4.3264   26.0970 S   0  0  0  0  0  0  0  0  0  0  0  0
    9.0293   -5.4773   26.0443 O   0  0  0  0  0  0  0  0  0  0  0  0
    8.4862   -3.4535   27.1644 O   0  0  0  0  0  0  0  0  0  0  0  0
    8.1397   -3.5176   24.6821 N   0  0  0  0  0  0  0  0  0  0  0  0
    8.9343   -2.8655   24.1504 C   0  0  0  0  0  0  0  0  0  0  0  0
    9.4583   -1.9100   23.4821 C   0  0  0  0  0  0  0  0  0  0  0  0
   10.5325   -1.0656   23.2551 C   0  0  1  0  0  0  0  0  0  0  0  0
   11.1723   -0.1421   24.1999 C   0  0  0  0  0  0  0  0  0  0  0  0
   12.2931    0.1625   24.1643 C   0  0  0  0  0  0  0  0  0  0  0  0
   13.2902    0.1203   23.8100 C   0  0  0  0  0  0  0  0  0  0  0  0
   12.7943   -1.4767   22.3463 C   0  0  0  0  0  0  0  0  0  0  0  0
   11.9335   -1.5670   22.5407 C   0  0  0  0  0  0  0  0  0  0  0  0
    9.6846   -0.7207   22.4891 C   0  0  3  0  0  0  0  0  0  0  0  0
    9.0056    0.0200   21.4234 C   0  0  0  0  0  0  0  0  0  0  0  0
    9.5314    0.9769   20.9511 O   0  0  0  0  0  0  0  0  0  0  0  0
    7.8716   -0.5158   21.1261 N   0  0  0  0  0  0  0  0  0  0  0  0
    7.1462   -0.0480   20.1894 C   0  0  0  0  0  0  0  0  0  0  0  0
    7.1544    0.0595   18.8782 C   0  0  0  0  0  0  0  0  0  0  0  0
    6.6745    0.3506   17.7866 N   0  0  0  0  0  0  0  0  0  0  0  0
    5.5641    0.8674   18.2770 C   0  0  0  0  0  0  0  0  0  0  0  0
    5.1592    0.9565   19.4199 C   0  0  0  0  0  0  0  0  0  0  0  0
    5.7424    0.5518   20.5737 C   0  0  0  0  0  0  0  0  0  0  0  0
    5.2665    0.6312   21.9161 C   0  0  0  0  0  0  0  0  0  0  0  0
 20 21  2  0  0  0  0
 19 20  1  0  0  0  0
 21 22  1  0  0  0  0
 18 19  2  0  0  0  0
 22 23  2  0  0  0  0
 18 23  1  0  0  0  0
 17 18  1  0  0  0  0
 23 24  1  0  0  0  0
 15 16  2  0  0  0  0
 15 17  1  0  0  0  0
 14 15  1  0  0  0  0
 12 13  2  0  0  0  0
  8 14  1  0  0  0  0
  7 14  1  0  0  0  0
  8 13  1  0  0  0  0
  7  8  1  0  0  0  0
  8  9  1  0  0  0  0
  6  7  2  0  0  0  0
 10 11  3  0  0  0  0
  5  6  1  0  0  0  0
  9 10  1  0  0  0  0
  2  5  1  0  0  0  0
  2  3  2  0  0  0  0
  1  2  1  0  0  0  0
  2  4  2  0  0  0  0
M  END
> <Shapegauss>
-284.067474

$$$$
