stable:False satoms:5 tatoms:24 sratio:0.20833333333333334
  -OEChem-08062414003D

 43 44  0     1  0  0  0  0  0999 V2000
    6.5550   -5.4868   26.1154 C   0  0  0  0  0  0  0  0  0  0  0  0
    8.1421   -4.7981   26.0024 S   0  0  0  0  0  0  0  0  0  0  0  0
    9.0783   -5.8870   25.9363 O   0  0  0  0  0  0  0  0  0  0  0  0
    8.3445   -3.9682   27.1302 O   0  0  0  0  0  0  0  0  0  0  0  0
    8.1309   -3.9146   24.6327 N   0  0  0  0  0  0  0  0  0  0  0  0
    8.9064   -3.1842   24.1805 C   0  0  0  0  0  0  0  0  0  0  0  0
    9.3991   -2.1611   23.5933 C   0  0  0  0  0  0  0  0  0  0  0  0
   10.4247   -1.2384   23.4705 C   0  0  1  0  0  0  0  0  0  0  0  0
   10.9521   -0.3305   24.4964 C   0  0  0  0  0  0  0  0  0  0  0  0
   12.0504    0.0465   24.5385 C   0  0  0  0  0  0  0  0  0  0  0  0
   13.0650    0.0881   24.2377 C   0  0  0  0  0  0  0  0  0  0  0  0
   12.7526   -1.4525   22.6668 C   0  0  0  0  0  0  0  0  0  0  0  0
   11.8909   -1.6084   22.8086 C   0  0  0  0  0  0  0  0  0  0  0  0
    9.5961   -0.9058   22.6784 C   0  0  3  0  0  0  0  0  0  0  0  0
    8.9248   -0.1513   21.6176 C   0  0  0  0  0  0  0  0  0  0  0  0
    9.4091    0.8623   21.2260 O   0  0  0  0  0  0  0  0  0  0  0  0
    7.8458   -0.7408   21.2307 N   0  0  0  0  0  0  0  0  0  0  0  0
    7.1398   -0.2684   20.2815 C   0  0  0  0  0  0  0  0  0  0  0  0
    7.2081   -0.0870   18.9803 C   0  0  0  0  0  0  0  0  0  0  0  0
    6.7665    0.2338   17.8809 N   0  0  0  0  0  0  0  0  0  0  0  0
    5.6004    0.6502   18.3362 C   0  0  0  0  0  0  0  0  0  0  0  0
    5.1323    0.6489   19.4582 C   0  0  0  0  0  0  0  0  0  0  0  0
    5.6813    0.2180   20.6193 C   0  0  0  0  0  0  0  0  0  0  0  0
    5.1329    0.1912   21.9359 C   0  0  0  0  0  0  0  0  0  0  0  0
    6.4859   -6.1027   27.0242 H   0  0  0  0  0  0  0  0  0  0  0  0
    5.8080   -4.6807   26.1612 H   0  0  0  0  0  0  0  0  0  0  0  0
    6.3639   -6.1140   25.2321 H   0  0  0  0  0  0  0  0  0  0  0  0
    7.3042   -3.3583   24.7174 H   0  0  0  0  0  0  0  0  0  0  0  0
    9.8156   -3.7244   24.3997 H   0  0  0  0  0  0  0  0  0  0  0  0
   10.3303    0.5750   24.4382 H   0  0  0  0  0  0  0  0  0  0  0  0
   10.7755   -0.8355   25.4576 H   0  0  0  0  0  0  0  0  0  0  0  0
   14.0805    0.1297   23.9367 H   0  0  0  0  0  0  0  0  0  0  0  0
   13.2241   -0.5860   23.1064 H   0  0  0  0  0  0  0  0  0  0  0  0
   13.3301   -2.1292   22.0545 H   0  0  0  0  0  0  0  0  0  0  0  0
   11.7016   -2.5189   22.2596 H   0  0  0  0  0  0  0  0  0  0  0  0
    9.1167   -0.2717   23.4386 H   0  0  0  0  0  0  0  0  0  0  0  0
    7.5578   -1.5844   21.6838 H   0  0  0  0  0  0  0  0  0  0  0  0
    8.2190   -0.3902   18.7509 H   0  0  0  0  0  0  0  0  0  0  0  0
    4.9485    1.0642   17.5811 H   0  0  0  0  0  0  0  0  0  0  0  0
    4.1329    1.0497   19.5414 H   0  0  0  0  0  0  0  0  0  0  0  0
    4.6259   -0.7706   22.1030 H   0  0  0  0  0  0  0  0  0  0  0  0
    5.9411    0.3123   22.6722 H   0  0  0  0  0  0  0  0  0  0  0  0
    4.4087    1.0116   22.0481 H   0  0  0  0  0  0  0  0  0  0  0  0
 20 21  2  0  0  0  0
 19 20  1  0  0  0  0
 21 22  1  0  0  0  0
 18 19  2  0  0  0  0
 22 23  2  0  0  0  0
 18 23  1  0  0  0  0
 17 18  1  0  0  0  0
 23 24  1  0  0  0  0
 15 16  2  0  0  0  0
 15 17  1  0  0  0  0
 14 15  1  0  0  0  0
 12 13  2  0  0  0  0
  8 14  1  0  0  0  0
  7 14  1  0  0  0  0
  8 13  1  0  0  0  0
  7  8  1  0  0  0  0
  8  9  1  0  0  0  0
  6  7  2  0  0  0  0
 10 11  3  0  0  0  0
  5  6  1  0  0  0  0
  9 10  1  0  0  0  0
  2  5  1  0  0  0  0
  2  3  2  0  0  0  0
  1  2  1  0  0  0  0
  2  4  2  0  0  0  0
  1 25  1  0  0  0  0
  1 26  1  0  0  0  0
  1 27  1  0  0  0  0
  5 28  1  0  0  0  0
  6 29  1  0  0  0  0
  9 30  1  0  0  0  0
  9 31  1  0  0  0  0
 11 32  1  0  0  0  0
 12 33  1  0  0  0  0
 12 34  1  0  0  0  0
 13 35  1  0  0  0  0
 14 36  1  0  0  0  0
 17 37  1  0  0  0  0
 19 38  1  0  0  0  0
 21 39  1  0  0  0  0
 22 40  1  0  0  0  0
 24 41  1  0  0  0  0
 24 42  1  0  0  0  0
 24 43  1  0  0  0  0
M  END
> <Chemgauss4>
-12.945677

$$$$
