stable:False satoms:5 tatoms:24 sratio:0.20833333333333334
  -OEChem-08062414003D

 43 44  0     1  0  0  0  0  0999 V2000
   -6.2767   -4.4845  -26.5008 C   0  0  0  0  0  0  0  0  0  0  0  0
   -7.9475   -4.0593  -26.3176 S   0  0  0  0  0  0  0  0  0  0  0  0
   -8.7061   -5.2800  -26.3456 O   0  0  0  0  0  0  0  0  0  0  0  0
   -8.2949   -3.1733  -27.3644 O   0  0  0  0  0  0  0  0  0  0  0  0
   -8.0445   -3.3096  -24.8735 N   0  0  0  0  0  0  0  0  0  0  0  0
   -8.9132   -2.7494  -24.3529 C   0  0  0  0  0  0  0  0  0  0  0  0
   -9.5442   -1.8699  -23.6729 C   0  0  0  0  0  0  0  0  0  0  0  0
  -10.6955   -1.1294  -23.4615 C   0  0  1  0  0  0  0  0  0  0  0  0
  -11.3740   -0.2254  -24.3982 C   0  0  0  0  0  0  0  0  0  0  0  0
  -12.5174   -0.0185  -24.4001 C   0  0  0  0  0  0  0  0  0  0  0  0
  -13.5206   -0.1594  -24.0915 C   0  0  0  0  0  0  0  0  0  0  0  0
  -12.9481   -1.7674  -22.6684 C   0  0  0  0  0  0  0  0  0  0  0  0
  -12.0756   -1.7765  -22.8282 C   0  0  0  0  0  0  0  0  0  0  0  0
   -9.9120   -0.7457  -22.6469 C   0  0  3  0  0  0  0  0  0  0  0  0
   -9.3430    0.0054  -21.5256 C   0  0  0  0  0  0  0  0  0  0  0  0
   -9.9679    0.8942  -21.0412 O   0  0  0  0  0  0  0  0  0  0  0  0
   -8.1799   -0.4442  -21.1993 N   0  0  0  0  0  0  0  0  0  0  0  0
   -7.5359    0.0445  -20.2150 C   0  0  0  0  0  0  0  0  0  0  0  0
   -7.6061    0.0970  -18.9023 C   0  0  0  0  0  0  0  0  0  0  0  0
   -7.1975    0.3827  -17.7807 N   0  0  0  0  0  0  0  0  0  0  0  0
   -6.1170    1.0113  -18.2025 C   0  0  0  0  0  0  0  0  0  0  0  0
   -5.6755    1.1811  -19.3225 C   0  0  0  0  0  0  0  0  0  0  0  0
   -6.1747    0.7762  -20.5150 C   0  0  0  0  0  0  0  0  0  0  0  0
   -5.6537    0.9505  -21.8314 C   0  0  0  0  0  0  0  0  0  0  0  0
   -6.1321   -4.9994  -27.4620 H   0  0  0  0  0  0  0  0  0  0  0  0
   -5.6618   -3.5727  -26.4773 H   0  0  0  0  0  0  0  0  0  0  0  0
   -5.9759   -5.1510  -25.6791 H   0  0  0  0  0  0  0  0  0  0  0  0
   -7.3136   -2.6282  -24.9117 H   0  0  0  0  0  0  0  0  0  0  0  0
   -9.7338   -3.4007  -24.6154 H   0  0  0  0  0  0  0  0  0  0  0  0
  -10.8958    0.7557  -24.2614 H   0  0  0  0  0  0  0  0  0  0  0  0
  -11.1410   -0.6101  -25.4020 H   0  0  0  0  0  0  0  0  0  0  0  0
  -14.5247   -0.3004  -23.7826 H   0  0  0  0  0  0  0  0  0  0  0  0
  -13.5540   -0.9476  -23.0252 H   0  0  0  0  0  0  0  0  0  0  0  0
  -13.4045   -2.5761  -22.1169 H   0  0  0  0  0  0  0  0  0  0  0  0
  -11.7399   -2.6925  -22.3649 H   0  0  0  0  0  0  0  0  0  0  0  0
   -9.5489    0.0192  -23.3490 H   0  0  0  0  0  0  0  0  0  0  0  0
   -7.7758   -1.1903  -21.7286 H   0  0  0  0  0  0  0  0  0  0  0  0
   -8.5547   -0.3763  -18.6961 H   0  0  0  0  0  0  0  0  0  0  0  0
   -5.5212    1.4513  -17.4165 H   0  0  0  0  0  0  0  0  0  0  0  0
   -4.7503    1.7358  -19.3743 H   0  0  0  0  0  0  0  0  0  0  0  0
   -5.0099    0.0962  -22.0877 H   0  0  0  0  0  0  0  0  0  0  0  0
   -6.4848    1.0115  -22.5494 H   0  0  0  0  0  0  0  0  0  0  0  0
   -5.0648    1.8787  -21.8726 H   0  0  0  0  0  0  0  0  0  0  0  0
 20 21  2  0  0  0  0
 19 20  1  0  0  0  0
 21 22  1  0  0  0  0
 18 19  2  0  0  0  0
 22 23  2  0  0  0  0
 18 23  1  0  0  0  0
 17 18  1  0  0  0  0
 23 24  1  0  0  0  0
 15 16  2  0  0  0  0
 15 17  1  0  0  0  0
 14 15  1  0  0  0  0
 12 13  2  0  0  0  0
  8 14  1  0  0  0  0
  7 14  1  0  0  0  0
  8 13  1  0  0  0  0
  7  8  1  0  0  0  0
  8  9  1  0  0  0  0
  6  7  2  0  0  0  0
 10 11  3  0  0  0  0
  5  6  1  0  0  0  0
  9 10  1  0  0  0  0
  2  5  1  0  0  0  0
  2  3  2  0  0  0  0
  1  2  1  0  0  0  0
  2  4  2  0  0  0  0
  1 25  1  0  0  0  0
  1 26  1  0  0  0  0
  1 27  1  0  0  0  0
  5 28  1  0  0  0  0
  6 29  1  0  0  0  0
  9 30  1  0  0  0  0
  9 31  1  0  0  0  0
 11 32  1  0  0  0  0
 12 33  1  0  0  0  0
 12 34  1  0  0  0  0
 13 35  1  0  0  0  0
 14 36  1  0  0  0  0
 17 37  1  0  0  0  0
 19 38  1  0  0  0  0
 21 39  1  0  0  0  0
 22 40  1  0  0  0  0
 24 41  1  0  0  0  0
 24 42  1  0  0  0  0
 24 43  1  0  0  0  0
M  END
> <Chemgauss4>
-13.030863

$$$$
