MODEL 1
REMARK VINA RESULT:    -6.578      0.000      0.000
REMARK INTER + INTRA:          -8.573
REMARK INTER:                  -8.116
REMARK INTRA:                  -0.457
REMARK UNBOUND:                -0.457
REMARK  4 active torsions:
REMARK  status: ('A' for Active; 'I' for Inactive)
REMARK    1  A    between atoms: C_2  and  N_4 
REMARK    2  A    between atoms: N_4  and  C_6 
REMARK    3  A    between atoms: C_6  and  C_9 
REMARK    4  A    between atoms: N_17  and  C_19 
ROOT
HETATM    1  N   UNL     1       7.760  -2.308  22.407  1.00  0.00    -0.341 N 
ATOM      2  HN  UNL     1       6.880  -2.655  22.026  1.00  0.00     0.164 HD
HETATM    3  C   UNL     1       8.363  -2.842  23.360  1.00  0.00     0.168 C 
HETATM    4  N   UNL     1       9.194  -2.195  24.284  1.00  0.00    -0.345 N 
ATOM      5  HN  UNL     1       9.069  -2.229  25.296  1.00  0.00     0.167 HD
HETATM    6  C   UNL     1      10.153  -1.540  23.676  1.00  0.00     0.090 C 
HETATM    7  C   UNL     1       9.982  -1.420  22.335  1.00  0.00     0.040 C 
HETATM    8  C   UNL     1       8.432  -1.175  21.920  1.00  0.00     0.156 A 
HETATM    9  C   UNL     1       7.324  -0.640  21.077  1.00  0.00     0.095 A 
HETATM   10  S   UNL     1       8.302   0.505  21.296  1.00  0.00    -0.070 SA
HETATM   11  N   UNL     1       6.207  -1.082  20.626  1.00  0.00    -0.336 N 
ATOM     12  HN  UNL     1       5.777  -1.965  20.903  1.00  0.00     0.168 HD
ENDROOT
BRANCH   3  13
HETATM   13  C   UNL     1       7.845  -4.171  23.364  1.00  0.00     0.007 C 
BRANCH  13  14
HETATM   14  N   UNL     1       7.722  -5.294  23.161  1.00  0.00    -0.297 N 
ATOM     15  HN  UNL     1       7.969  -5.943  23.908  1.00  0.00     0.174 HD
BRANCH  14  16
HETATM   16  C   UNL     1       7.240  -5.849  21.917  1.00  0.00     0.465 C 
HETATM   17  F   UNL     1       6.748  -7.017  22.050  1.00  0.00    -0.191 F 
HETATM   18  F   UNL     1       6.201  -5.068  21.506  1.00  0.00    -0.191 F 
ENDBRANCH  14  16
ENDBRANCH  13  14
ENDBRANCH   3  13
BRANCH  11  19
HETATM   19  C   UNL     1       5.709  -0.261  19.781  1.00  0.00     0.121 A 
HETATM   20  N   UNL     1       4.820   0.790  19.908  1.00  0.00    -0.286 N 
HETATM   21  N   UNL     1       4.772   1.594  18.861  1.00  0.00    -0.310 N 
ATOM     22  HN  UNL     1       4.249   0.933  20.741  1.00  0.00     0.188 HD
HETATM   23  C   UNL     1       5.575   1.090  17.962  1.00  0.00     0.111 A 
ATOM     24  HN  UNL     1       4.216   2.444  18.771  1.00  0.00     0.186 HD
HETATM   25  C   UNL     1       6.228  -0.096  18.424  1.00  0.00     0.068 A 
ENDBRANCH  11  19
TORSDOF 4
ENDMDL
MODEL 2
REMARK VINA RESULT:    -6.411      5.206      6.445
REMARK INTER + INTRA:          -8.367
REMARK INTER:                  -7.990
REMARK INTRA:                  -0.377
REMARK UNBOUND:                -0.457
REMARK  4 active torsions:
REMARK  status: ('A' for Active; 'I' for Inactive)
REMARK    1  A    between atoms: C_2  and  N_4 
REMARK    2  A    between atoms: N_4  and  C_6 
REMARK    3  A    between atoms: C_6  and  C_9 
REMARK    4  A    between atoms: N_17  and  C_19 
ROOT
HETATM    1  N   UNL     1      10.047   1.575  22.916  1.00  0.00    -0.341 N 
ATOM      2  HN  UNL     1       9.586   2.202  22.257  1.00  0.00     0.164 HD
HETATM    3  C   UNL     1      11.042   1.893  23.598  1.00  0.00     0.168 C 
HETATM    4  N   UNL     1      12.043   1.028  24.059  1.00  0.00    -0.345 N 
ATOM      5  HN  UNL     1      13.040   1.150  23.879  1.00  0.00     0.167 HD
HETATM    6  C   UNL     1      11.530   0.042  24.753  1.00  0.00     0.090 C 
HETATM    7  C   UNL     1      10.181  -0.066  24.654  1.00  0.00     0.040 C 
HETATM    8  C   UNL     1       9.635   0.255  23.159  1.00  0.00     0.156 A 
HETATM    9  C   UNL     1       8.705   0.125  22.000  1.00  0.00     0.095 A 
HETATM   10  S   UNL     1       9.023  -1.288  22.468  1.00  0.00    -0.070 SA
HETATM   11  N   UNL     1       8.153   0.924  21.162  1.00  0.00    -0.336 N 
ATOM     12  HN  UNL     1       8.380   1.914  21.067  1.00  0.00     0.168 HD
ENDROOT
BRANCH   3  13
HETATM   13  C   UNL     1      10.984   3.318  23.606  1.00  0.00     0.007 C 
BRANCH  13  14
HETATM   14  N   UNL     1      11.028   4.413  23.265  1.00  0.00    -0.297 N 
ATOM     15  HN  UNL     1      10.287   4.750  22.649  1.00  0.00     0.174 HD
BRANCH  14  16
HETATM   16  C   UNL     1      12.063   5.345  23.649  1.00  0.00     0.465 C 
HETATM   17  F   UNL     1      11.899   5.814  24.823  1.00  0.00    -0.191 F 
HETATM   18  F   UNL     1      13.231   4.645  23.704  1.00  0.00    -0.191 F 
ENDBRANCH  14  16
ENDBRANCH  13  14
ENDBRANCH   3  13
BRANCH  11  19
HETATM   19  C   UNL     1       7.278   0.306  20.463  1.00  0.00     0.121 A 
HETATM   20  N   UNL     1       6.016  -0.176  20.756  1.00  0.00    -0.286 N 
HETATM   21  N   UNL     1       5.293  -0.495  19.697  1.00  0.00    -0.310 N 
ATOM     22  HN  UNL     1       5.671  -0.278  21.711  1.00  0.00     0.188 HD
HETATM   23  C   UNL     1       6.053  -0.302  18.652  1.00  0.00     0.111 A 
ATOM     24  HN  UNL     1       4.329  -0.827  19.696  1.00  0.00     0.186 HD
HETATM   25  C   UNL     1       7.343   0.202  19.007  1.00  0.00     0.068 A 
ENDBRANCH  11  19
TORSDOF 4
ENDMDL
MODEL 3
REMARK VINA RESULT:    -6.196      3.471      4.369
REMARK INTER + INTRA:          -8.102
REMARK INTER:                  -7.719
REMARK INTRA:                  -0.383
REMARK UNBOUND:                -0.457
REMARK  4 active torsions:
REMARK  status: ('A' for Active; 'I' for Inactive)
REMARK    1  A    between atoms: C_2  and  N_4 
REMARK    2  A    between atoms: N_4  and  C_6 
REMARK    3  A    between atoms: C_6  and  C_9 
REMARK    4  A    between atoms: N_17  and  C_19 
ROOT
HETATM    1  N   UNL     1       8.709  -1.383  22.644  1.00  0.00    -0.341 N 
ATOM      2  HN  UNL     1       9.160  -0.578  22.209  1.00  0.00     0.164 HD
HETATM    3  C   UNL     1       9.268  -2.129  23.473  1.00  0.00     0.168 C 
HETATM    4  N   UNL     1       8.995  -3.487  23.684  1.00  0.00    -0.345 N 
ATOM      5  HN  UNL     1       9.693  -4.230  23.639  1.00  0.00     0.167 HD
HETATM    6  C   UNL     1       7.726  -3.676  23.948  1.00  0.00     0.090 C 
HETATM    7  C   UNL     1       6.940  -2.596  23.708  1.00  0.00     0.040 C 
HETATM    8  C   UNL     1       7.388  -1.778  22.379  1.00  0.00     0.156 A 
HETATM    9  C   UNL     1       7.168  -0.925  21.175  1.00  0.00     0.095 A 
HETATM   10  S   UNL     1       6.098  -2.008  21.147  1.00  0.00    -0.070 SA
HETATM   11  N   UNL     1       7.761   0.071  20.625  1.00  0.00    -0.336 N 
ATOM     12  HN  UNL     1       8.677   0.425  20.899  1.00  0.00     0.168 HD
ENDROOT
BRANCH   3  13
HETATM   13  C   UNL     1      10.329  -1.317  23.971  1.00  0.00     0.007 C 
BRANCH  13  14
HETATM   14  N   UNL     1      10.903  -0.492  24.527  1.00  0.00    -0.297 N 
ATOM     15  HN  UNL     1      10.543  -0.188  25.432  1.00  0.00     0.174 HD
BRANCH  14  16
HETATM   16  C   UNL     1      12.103   0.142  24.031  1.00  0.00     0.465 C 
HETATM   17  F   UNL     1      12.105   1.405  24.202  1.00  0.00    -0.191 F 
HETATM   18  F   UNL     1      13.141  -0.321  24.782  1.00  0.00    -0.191 F 
ENDBRANCH  14  16
ENDBRANCH  13  14
ENDBRANCH   3  13
BRANCH  11  19
HETATM   19  C   UNL     1       7.041   0.558  19.686  1.00  0.00     0.121 A 
HETATM   20  N   UNL     1       6.989   0.318  18.326  1.00  0.00    -0.286 N 
HETATM   21  N   UNL     1       5.912   0.798  17.728  1.00  0.00    -0.310 N 
ATOM     22  HN  UNL     1       7.720  -0.186  17.825  1.00  0.00     0.188 HD
HETATM   23  C   UNL     1       5.226   1.431  18.641  1.00  0.00     0.111 A 
ATOM     24  HN  UNL     1       5.666   0.693  16.744  1.00  0.00     0.186 HD
HETATM   25  C   UNL     1       5.841   1.356  19.929  1.00  0.00     0.068 A 
ENDBRANCH  11  19
TORSDOF 4
ENDMDL
MODEL 4
REMARK VINA RESULT:    -6.094     24.612     26.758
REMARK INTER + INTRA:          -7.976
REMARK INTER:                  -7.528
REMARK INTRA:                  -0.448
REMARK UNBOUND:                -0.457
REMARK  4 active torsions:
REMARK  status: ('A' for Active; 'I' for Inactive)
REMARK    1  A    between atoms: C_2  and  N_4 
REMARK    2  A    between atoms: N_4  and  C_6 
REMARK    3  A    between atoms: C_6  and  C_9 
REMARK    4  A    between atoms: N_17  and  C_19 
ROOT
HETATM    1  N   UNL     1      11.284  17.897   4.249  1.00  0.00    -0.341 N 
ATOM      2  HN  UNL     1      11.162  17.666   3.264  1.00  0.00     0.164 HD
HETATM    3  C   UNL     1      12.001  18.831   4.661  1.00  0.00     0.168 C 
HETATM    4  N   UNL     1      12.667  18.887   5.892  1.00  0.00    -0.345 N 
ATOM      5  HN  UNL     1      13.670  19.041   6.000  1.00  0.00     0.167 HD
HETATM    6  C   UNL     1      11.832  18.715   6.887  1.00  0.00     0.090 C 
HETATM    7  C   UNL     1      10.603  18.276   6.513  1.00  0.00     0.040 C 
HETATM    8  C   UNL     1      10.665  17.200   5.299  1.00  0.00     0.156 A 
HETATM    9  C   UNL     1      10.199  16.026   4.505  1.00  0.00     0.095 A 
HETATM   10  S   UNL     1      10.166  15.607   5.968  1.00  0.00    -0.070 SA
HETATM   11  N   UNL     1      10.076  15.741   3.260  1.00  0.00    -0.336 N 
ATOM     12  HN  UNL     1      10.433  16.312   2.495  1.00  0.00     0.168 HD
ENDROOT
BRANCH   3  13
HETATM   13  C   UNL     1      12.107  19.681   3.520  1.00  0.00     0.007 C 
BRANCH  13  14
HETATM   14  N   UNL     1      12.015  20.086   2.449  1.00  0.00    -0.297 N 
ATOM     15  HN  UNL     1      12.874  20.215   1.914  1.00  0.00     0.174 HD
BRANCH  14  16
HETATM   16  C   UNL     1      10.764  20.426   1.811  1.00  0.00     0.465 C 
HETATM   17  F   UNL     1      10.890  21.323   0.915  1.00  0.00    -0.191 F 
HETATM   18  F   UNL     1      10.339  19.315   1.147  1.00  0.00    -0.191 F 
ENDBRANCH  14  16
ENDBRANCH  13  14
ENDBRANCH   3  13
BRANCH  11  19
HETATM   19  C   UNL     1       9.441  14.639   3.114  1.00  0.00     0.121 A 
HETATM   20  N   UNL     1       9.818  13.316   3.251  1.00  0.00    -0.286 N 
HETATM   21  N   UNL     1       8.809  12.465   3.308  1.00  0.00    -0.310 N 
ATOM     22  HN  UNL     1      10.793  13.022   3.303  1.00  0.00     0.188 HD
HETATM   23  C   UNL     1       7.717  13.164   3.151  1.00  0.00     0.111 A 
ATOM     24  HN  UNL     1       8.872  11.456   3.447  1.00  0.00     0.186 HD
HETATM   25  C   UNL     1       7.985  14.561   3.012  1.00  0.00     0.068 A 
ENDBRANCH  11  19
TORSDOF 4
ENDMDL
MODEL 5
REMARK VINA RESULT:    -6.065      4.169      4.746
REMARK INTER + INTRA:          -7.940
REMARK INTER:                  -7.532
REMARK INTRA:                  -0.408
REMARK UNBOUND:                -0.457
REMARK  4 active torsions:
REMARK  status: ('A' for Active; 'I' for Inactive)
REMARK    1  A    between atoms: C_2  and  N_4 
REMARK    2  A    between atoms: N_4  and  C_6 
REMARK    3  A    between atoms: C_6  and  C_9 
REMARK    4  A    between atoms: N_17  and  C_19 
ROOT
HETATM    1  N   UNL     1       8.656   0.580  23.372  1.00  0.00    -0.341 N 
ATOM      2  HN  UNL     1       8.770  -0.265  22.814  1.00  0.00     0.164 HD
HETATM    3  C   UNL     1       9.149   0.735  24.508  1.00  0.00     0.168 C 
HETATM    4  N   UNL     1       8.630   1.531  25.537  1.00  0.00    -0.345 N 
ATOM      5  HN  UNL     1       8.414   1.194  26.475  1.00  0.00     0.167 HD
HETATM    6  C   UNL     1       8.458   2.767  25.135  1.00  0.00     0.090 C 
HETATM    7  C   UNL     1       8.567   2.936  23.793  1.00  0.00     0.040 C 
HETATM    8  C   UNL     1       7.926   1.704  22.952  1.00  0.00     0.156 A 
HETATM    9  C   UNL     1       7.246   1.069  21.786  1.00  0.00     0.095 A 
HETATM   10  S   UNL     1       6.459   2.327  22.121  1.00  0.00    -0.070 SA
HETATM   11  N   UNL     1       7.386  -0.011  21.109  1.00  0.00    -0.336 N 
ATOM     12  HN  UNL     1       8.006  -0.781  21.363  1.00  0.00     0.168 HD
ENDROOT
BRANCH   3  13
HETATM   13  C   UNL     1      10.208  -0.220  24.531  1.00  0.00     0.007 C 
BRANCH  13  14
HETATM   14  N   UNL     1      11.231  -0.717  24.377  1.00  0.00    -0.297 N 
ATOM     15  HN  UNL     1      11.291  -1.730  24.490  1.00  0.00     0.174 HD
BRANCH  14  16
HETATM   16  C   UNL     1      12.441  -0.005  24.033  1.00  0.00     0.465 C 
HETATM   17  F   UNL     1      12.357   1.249  24.246  1.00  0.00    -0.191 F 
HETATM   18  F   UNL     1      13.418  -0.445  24.875  1.00  0.00    -0.191 F 
ENDBRANCH  14  16
ENDBRANCH  13  14
ENDBRANCH   3  13
BRANCH  11  19
HETATM   19  C   UNL     1       6.640   0.012  20.069  1.00  0.00     0.121 A 
HETATM   20  N   UNL     1       5.270  -0.059  19.899  1.00  0.00    -0.286 N 
HETATM   21  N   UNL     1       4.851   0.296  18.697  1.00  0.00    -0.310 N 
ATOM     22  HN  UNL     1       4.636  -0.360  20.638  1.00  0.00     0.188 HD
HETATM   23  C   UNL     1       5.917   0.561  17.990  1.00  0.00     0.111 A 
ATOM     24  HN  UNL     1       3.882   0.353  18.383  1.00  0.00     0.186 HD
HETATM   25  C   UNL     1       7.120   0.412  18.748  1.00  0.00     0.068 A 
ENDBRANCH  11  19
TORSDOF 4
ENDMDL
MODEL 6
REMARK VINA RESULT:    -6.057      1.814      1.910
REMARK INTER + INTRA:          -7.931
REMARK INTER:                  -7.544
REMARK INTRA:                  -0.387
REMARK UNBOUND:                -0.457
REMARK  4 active torsions:
REMARK  status: ('A' for Active; 'I' for Inactive)
REMARK    1  A    between atoms: C_2  and  N_4 
REMARK    2  A    between atoms: N_4  and  C_6 
REMARK    3  A    between atoms: C_6  and  C_9 
REMARK    4  A    between atoms: N_17  and  C_19 
ROOT
HETATM    1  N   UNL     1       7.808  -2.173  22.713  1.00  0.00    -0.341 N 
ATOM      2  HN  UNL     1       6.880  -2.500  22.449  1.00  0.00     0.164 HD
HETATM    3  C   UNL     1       8.436  -2.588  23.708  1.00  0.00     0.168 C 
HETATM    4  N   UNL     1       9.378  -1.870  24.456  1.00  0.00    -0.345 N 
ATOM      5  HN  UNL     1       9.323  -1.722  25.464  1.00  0.00     0.167 HD
HETATM    6  C   UNL     1      10.337  -1.413  23.690  1.00  0.00     0.090 C 
HETATM    7  C   UNL     1      10.081  -1.506  22.360  1.00  0.00     0.040 C 
HETATM    8  C   UNL     1       8.528  -1.201  21.999  1.00  0.00     0.156 A 
HETATM    9  C   UNL     1       7.406  -0.721  21.141  1.00  0.00     0.095 A 
HETATM   10  S   UNL     1       8.482   0.355  21.100  1.00  0.00    -0.070 SA
HETATM   11  N   UNL     1       6.230  -1.133  20.838  1.00  0.00    -0.336 N 
ATOM     12  HN  UNL     1       5.755  -1.916  21.288  1.00  0.00     0.168 HD
ENDROOT
BRANCH   3  13
HETATM   13  C   UNL     1       7.820  -3.847  23.972  1.00  0.00     0.007 C 
BRANCH  13  14
HETATM   14  N   UNL     1       7.629  -4.905  24.376  1.00  0.00    -0.297 N 
ATOM     15  HN  UNL     1       7.313  -5.617  23.718  1.00  0.00     0.174 HD
BRANCH  14  16
HETATM   16  C   UNL     1       7.807  -5.294  25.757  1.00  0.00     0.465 C 
HETATM   17  F   UNL     1       9.007  -5.625  26.029  1.00  0.00    -0.191 F 
HETATM   18  F   UNL     1       7.559  -4.192  26.518  1.00  0.00    -0.191 F 
ENDBRANCH  14  16
ENDBRANCH  13  14
ENDBRANCH   3  13
BRANCH  11  19
HETATM   19  C   UNL     1       5.736  -0.426  19.893  1.00  0.00     0.121 A 
HETATM   20  N   UNL     1       4.878   0.657  19.884  1.00  0.00    -0.286 N 
HETATM   21  N   UNL     1       4.830   1.306  18.734  1.00  0.00    -0.310 N 
ATOM     22  HN  UNL     1       4.327   0.933  20.697  1.00  0.00     0.188 HD
HETATM   23  C   UNL     1       5.601   0.657  17.903  1.00  0.00     0.111 A 
ATOM     24  HN  UNL     1       4.294   2.150  18.534  1.00  0.00     0.186 HD
HETATM   25  C   UNL     1       6.232  -0.469  18.519  1.00  0.00     0.068 A 
ENDBRANCH  11  19
TORSDOF 4
ENDMDL
MODEL 7
REMARK VINA RESULT:    -5.988     20.821     23.765
REMARK INTER + INTRA:          -7.846
REMARK INTER:                  -7.464
REMARK INTRA:                  -0.381
REMARK UNBOUND:                -0.457
REMARK  4 active torsions:
REMARK  status: ('A' for Active; 'I' for Inactive)
REMARK    1  A    between atoms: C_2  and  N_4 
REMARK    2  A    between atoms: N_4  and  C_6 
REMARK    3  A    between atoms: C_6  and  C_9 
REMARK    4  A    between atoms: N_17  and  C_19 
ROOT
HETATM    1  N   UNL     1       8.028  12.596   3.373  1.00  0.00    -0.341 N 
ATOM      2  HN  UNL     1       8.477  12.548   4.287  1.00  0.00     0.164 HD
HETATM    3  C   UNL     1       7.385  11.656   2.864  1.00  0.00     0.168 C 
HETATM    4  N   UNL     1       7.232  11.399   1.495  1.00  0.00    -0.345 N 
ATOM      5  HN  UNL     1       7.470  10.516   1.043  1.00  0.00     0.167 HD
HETATM    6  C   UNL     1       6.743  12.443   0.872  1.00  0.00     0.090 C 
HETATM    7  C   UNL     1       6.740  13.581   1.611  1.00  0.00     0.040 C 
HETATM    8  C   UNL     1       8.063  13.727   2.542  1.00  0.00     0.156 A 
HETATM    9  C   UNL     1       9.129  14.472   3.272  1.00  0.00     0.095 A 
HETATM   10  S   UNL     1       9.035  15.089   1.884  1.00  0.00    -0.070 SA
HETATM   11  N   UNL     1       9.703  14.383   4.416  1.00  0.00    -0.336 N 
ATOM     12  HN  UNL     1       9.585  13.606   5.066  1.00  0.00     0.168 HD
ENDROOT
BRANCH   3  13
HETATM   13  C   UNL     1       7.039  10.855   3.993  1.00  0.00     0.007 C 
BRANCH  13  14
HETATM   14  N   UNL     1       6.773   9.951   4.648  1.00  0.00    -0.297 N 
ATOM     15  HN  UNL     1       7.517   9.532   5.206  1.00  0.00     0.174 HD
BRANCH  14  16
HETATM   16  C   UNL     1       5.454   9.367   4.735  1.00  0.00     0.465 C 
HETATM   17  F   UNL     1       5.302   8.365   3.963  1.00  0.00    -0.191 F 
HETATM   18  F   UNL     1       5.318   8.871   5.997  1.00  0.00    -0.191 F 
ENDBRANCH  14  16
ENDBRANCH  13  14
ENDBRANCH   3  13
BRANCH  11  19
HETATM   19  C   UNL     1      10.443  15.405   4.626  1.00  0.00     0.121 A 
HETATM   20  N   UNL     1      11.739  15.714   4.258  1.00  0.00    -0.286 N 
HETATM   21  N   UNL     1      12.059  16.988   4.406  1.00  0.00    -0.310 N 
ATOM     22  HN  UNL     1      12.394  15.018   3.901  1.00  0.00     0.188 HD
HETATM   23  C   UNL     1      11.021  17.578   4.935  1.00  0.00     0.111 A 
ATOM     24  HN  UNL     1      12.946  17.425   4.155  1.00  0.00     0.186 HD
HETATM   25  C   UNL     1       9.928  16.676   5.130  1.00  0.00     0.068 A 
ENDBRANCH  11  19
TORSDOF 4
ENDMDL
MODEL 8
REMARK VINA RESULT:    -5.977      4.134      6.031
REMARK INTER + INTRA:          -7.831
REMARK INTER:                  -7.468
REMARK INTRA:                  -0.364
REMARK UNBOUND:                -0.457
REMARK  4 active torsions:
REMARK  status: ('A' for Active; 'I' for Inactive)
REMARK    1  A    between atoms: C_2  and  N_4 
REMARK    2  A    between atoms: N_4  and  C_6 
REMARK    3  A    between atoms: C_6  and  C_9 
REMARK    4  A    between atoms: N_17  and  C_19 
ROOT
HETATM    1  N   UNL     1       9.332  -1.596  22.440  1.00  0.00    -0.341 N 
ATOM      2  HN  UNL     1       9.669  -2.464  22.856  1.00  0.00     0.164 HD
HETATM    3  C   UNL     1       9.956  -0.517  22.481  1.00  0.00     0.168 C 
HETATM    4  N   UNL     1       9.396   0.767  22.471  1.00  0.00    -0.345 N 
ATOM      5  HN  UNL     1       9.570   1.480  23.180  1.00  0.00     0.167 HD
HETATM    6  C   UNL     1       8.619   0.933  21.429  1.00  0.00     0.090 C 
HETATM    7  C   UNL     1       8.331  -0.213  20.761  1.00  0.00     0.040 C 
HETATM    8  C   UNL     1       8.112  -1.479  21.754  1.00  0.00     0.156 A 
HETATM    9  C   UNL     1       7.527  -2.785  22.174  1.00  0.00     0.095 A 
HETATM   10  S   UNL     1       6.373  -1.925  21.679  1.00  0.00    -0.070 SA
HETATM   11  N   UNL     1       7.961  -3.860  22.722  1.00  0.00    -0.336 N 
ATOM     12  HN  UNL     1       8.893  -3.974  23.121  1.00  0.00     0.168 HD
ENDROOT
BRANCH   3  13
HETATM   13  C   UNL     1      11.298  -0.931  22.729  1.00  0.00     0.007 C 
BRANCH  13  14
HETATM   14  N   UNL     1      12.299  -1.129  23.256  1.00  0.00    -0.297 N 
ATOM     15  HN  UNL     1      12.895  -1.869  22.885  1.00  0.00     0.174 HD
BRANCH  14  16
HETATM   16  C   UNL     1      12.770  -0.398  24.410  1.00  0.00     0.465 C 
HETATM   17  F   UNL     1      13.964  -0.702  24.738  1.00  0.00    -0.191 F 
HETATM   18  F   UNL     1      12.821   0.918  24.058  1.00  0.00    -0.191 F 
ENDBRANCH  14  16
ENDBRANCH  13  14
ENDBRANCH   3  13
BRANCH  11  19
HETATM   19  C   UNL     1       7.062  -4.770  22.698  1.00  0.00     0.121 A 
HETATM   20  N   UNL     1       6.915  -5.922  21.948  1.00  0.00    -0.286 N 
HETATM   21  N   UNL     1       6.009  -6.764  22.412  1.00  0.00    -0.310 N 
ATOM     22  HN  UNL     1       7.461  -6.107  21.106  1.00  0.00     0.188 HD
HETATM   23  C   UNL     1       5.464  -6.194  23.453  1.00  0.00     0.111 A 
ATOM     24  HN  UNL     1       5.780  -7.682  22.030  1.00  0.00     0.186 HD
HETATM   25  C   UNL     1       6.044  -4.918  23.736  1.00  0.00     0.068 A 
ENDBRANCH  11  19
TORSDOF 4
ENDMDL
MODEL 9
REMARK VINA RESULT:    -5.913      4.636      6.224
REMARK INTER + INTRA:          -7.753
REMARK INTER:                  -7.376
REMARK INTRA:                  -0.377
REMARK UNBOUND:                -0.457
REMARK  4 active torsions:
REMARK  status: ('A' for Active; 'I' for Inactive)
REMARK    1  A    between atoms: C_2  and  N_4 
REMARK    2  A    between atoms: N_4  and  C_6 
REMARK    3  A    between atoms: C_6  and  C_9 
REMARK    4  A    between atoms: N_17  and  C_19 
ROOT
HETATM    1  N   UNL     1       9.422   0.798  21.829  1.00  0.00    -0.341 N 
ATOM      2  HN  UNL     1       9.179   1.737  21.513  1.00  0.00     0.164 HD
HETATM    3  C   UNL     1       8.817  -0.233  21.475  1.00  0.00     0.168 C 
HETATM    4  N   UNL     1       8.678  -1.412  22.220  1.00  0.00    -0.345 N 
ATOM      5  HN  UNL     1       7.784  -1.846  22.451  1.00  0.00     0.167 HD
HETATM    6  C   UNL     1       9.847  -1.882  22.579  1.00  0.00     0.090 C 
HETATM    7  C   UNL     1      10.877  -1.020  22.386  1.00  0.00     0.040 C 
HETATM    8  C   UNL     1      10.476   0.519  22.713  1.00  0.00     0.156 A 
HETATM    9  C   UNL     1      10.732   1.919  23.160  1.00  0.00     0.095 A 
HETATM   10  S   UNL     1      11.377   1.005  24.191  1.00  0.00    -0.070 SA
HETATM   11  N   UNL     1      10.396   3.092  22.764  1.00  0.00    -0.336 N 
ATOM     12  HN  UNL     1       9.707   3.286  22.038  1.00  0.00     0.168 HD
ENDROOT
BRANCH   3  13
HETATM   13  C   UNL     1       8.179   0.168  20.264  1.00  0.00     0.007 C 
BRANCH  13  14
HETATM   14  N   UNL     1       7.373   0.463  19.502  1.00  0.00    -0.297 N 
ATOM     15  HN  UNL     1       7.420   1.398  19.096  1.00  0.00     0.174 HD
BRANCH  14  16
HETATM   16  C   UNL     1       6.295  -0.402  19.080  1.00  0.00     0.465 C 
HETATM   17  F   UNL     1       5.718  -0.989  20.052  1.00  0.00    -0.191 F 
HETATM   18  F   UNL     1       5.338   0.393  18.524  1.00  0.00    -0.191 F 
ENDBRANCH  14  16
ENDBRANCH  13  14
ENDBRANCH   3  13
BRANCH  11  19
HETATM   19  C   UNL     1      11.049   3.986  23.408  1.00  0.00     0.121 A 
HETATM   20  N   UNL     1      12.381   4.355  23.406  1.00  0.00    -0.286 N 
HETATM   21  N   UNL     1      12.625   5.518  23.983  1.00  0.00    -0.310 N 
ATOM     22  HN  UNL     1      13.114   3.778  22.993  1.00  0.00     0.188 HD
HETATM   23  C   UNL     1      11.486   5.952  24.452  1.00  0.00     0.111 A 
ATOM     24  HN  UNL     1      13.529   5.986  24.050  1.00  0.00     0.186 HD
HETATM   25  C   UNL     1      10.405   5.064  24.155  1.00  0.00     0.068 A 
ENDBRANCH  11  19
TORSDOF 4
ENDMDL
