stable:False satoms:17 tatoms:24 sratio:0.7083333333333334
  -OEChem-07092417383D

 24 26  0     1  0  0  0  0  0999 V2000
    7.2022   -4.6634   26.3666 F   0  0  0  0  0  0  0  0  0  0  0  0
    8.4017   -4.3201   26.1095 C   0  0  0  0  0  0  0  0  0  0  0  0
    9.0940   -5.4902   26.0094 F   0  0  0  0  0  0  0  0  0  0  0  0
    8.7937   -3.7491   26.9880 H   0  0  0  0  0  0  0  0  0  0  0  0
    8.5351   -3.6376   24.8425 N   0  3  0  0  0  0  0  0  0  0  0  0
    9.3442   -2.8568   24.6104 C   0  0  0  0  0  0  0  0  0  0  0  0
    9.3230   -1.3773   23.1272 N   0  3  0  0  0  0  0  0  0  0  0  0
    9.9941   -1.6803   24.1344 C   0  0  3  0  0  0  0  0  0  0  0  0
   11.0088   -0.9112   24.7177 N   0  0  0  0  0  0  0  0  0  0  0  0
   11.9369   -0.6144   23.8418 C   0  0  0  0  0  0  0  0  0  0  0  0
   12.9210   -0.2382   24.1443 H   0  0  0  0  0  0  0  0  0  0  0  0
   12.3400   -1.2095   21.8567 H   0  0  0  0  0  0  0  0  0  0  0  0
   11.5945   -0.8797   22.5556 C   0  0  0  0  0  0  0  0  0  0  0  0
   10.0358   -0.5516   22.2420 C   0  0  1  0  0  0  0  0  0  0  0  0
    8.8839   -0.1416   21.3881 C   0  0  3  0  0  0  0  0  0  0  0  0
    9.9983    0.8632   21.1340 S   0  0  0  0  0  0  0  0  0  0  0  0
    7.6752   -0.5345   21.2137 N   0  0  0  0  0  0  0  0  0  0  0  0
    7.1534    0.0570   20.2055 C   0  0  0  0  0  0  0  0  0  0  0  0
    7.4591    0.0549   18.8580 N   0  0  0  0  0  0  0  0  0  0  0  0
    6.5118    0.5526   18.0827 N   0  0  0  0  0  0  0  0  0  0  0  0
    5.5576    0.9674   18.8730 C   0  0  0  0  0  0  0  0  0  0  0  0
    4.6628    1.4479   18.5700 H   0  0  0  0  0  0  0  0  0  0  0  0
    5.8479    0.7126   20.2501 C   0  0  0  0  0  0  0  0  0  0  0  0
    5.3092    0.9100   21.1753 H   0  0  0  0  0  0  0  0  0  0  0  0
 19 20  1  0  0  0  0
 20 21  2  0  0  0  0
 21 22  1  0  0  0  0
 18 19  1  0  0  0  0
 21 23  1  0  0  0  0
 18 23  2  0  0  0  0
 17 18  1  0  0  0  0
 23 24  1  0  0  0  0
 15 16  1  0  0  0  0
 14 16  1  0  0  0  0
 15 17  1  0  0  0  0
 14 15  1  0  0  0  0
 12 13  1  0  0  0  0
 13 14  1  0  0  0  0
  7 14  1  0  0  0  0
 10 13  2  0  0  0  0
  7  8  1  0  0  0  0
 10 11  1  0  0  0  0
  9 10  1  0  0  0  0
  6  8  1  0  0  0  0
  8  9  1  0  0  0  0
  5  6  1  0  0  0  0
  2  5  1  0  0  0  0
  2  3  1  0  0  0  0
  1  2  1  0  0  0  0
  2  4  1  0  0  0  0
M  CHG  2   5   1   7   1
M  END
> <Shapegauss>
-221.286957

$$$$
