stable:False satoms:6 tatoms:24 sratio:0.25
  -OEChem-07092417463D

 24 26  0     1  0  0  0  0  0999 V2000
    6.6537   -4.8177   26.4600 C   0  0  0  0  0  0  0  0  0  0  0  0
    8.1693   -4.3346   26.1205 S   0  0  0  0  0  0  0  0  0  0  0  0
    9.0143   -5.5341   26.0935 O   0  0  0  0  0  0  0  0  0  0  0  0
    8.6511   -3.4377   27.1480 O   0  0  0  0  0  0  0  0  0  0  0  0
    8.1270   -3.5914   24.6668 N   0  0  0  0  0  0  0  0  0  0  0  0
    8.9303   -2.8933   24.1256 C   0  0  0  0  0  0  0  0  0  0  0  0
    9.4118   -1.9964   23.5208 C   0  0  0  0  0  0  0  0  0  0  0  0
   10.3373   -1.0270   23.2976 C   0  0  1  0  0  0  0  0  0  0  0  0
   11.0727   -0.0468   24.2528 C   0  0  0  0  0  0  0  0  0  0  0  0
   12.1345    0.2963   24.2433 C   0  0  0  0  0  0  0  0  0  0  0  0
   13.1195   -0.1158   23.5186 C   0  0  0  0  0  0  0  0  0  0  0  0
   12.7436   -1.2555   22.6490 C   0  0  0  0  0  0  0  0  0  0  0  0
   11.8323   -1.7113   22.5568 C   0  0  0  0  0  0  0  0  0  0  0  0
    9.6791   -0.6351   22.4012 C   0  0  2  0  0  0  0  0  0  0  0  0
    9.0300    0.0701   21.4076 C   0  0  0  0  0  0  0  0  0  0  0  0
    9.5422    1.0311   20.9978 O   0  0  0  0  0  0  0  0  0  0  0  0
    7.9005   -0.5330   21.1022 N   0  0  0  0  0  0  0  0  0  0  0  0
    7.2066   -0.1197   20.1414 C   0  0  0  0  0  0  0  0  0  0  0  0
    7.2095   -0.0162   18.8454 C   0  0  0  0  0  0  0  0  0  0  0  0
    6.7509    0.3041   17.7323 N   0  0  0  0  0  0  0  0  0  0  0  0
    5.7068    0.8166   18.2494 C   0  0  0  0  0  0  0  0  0  0  0  0
    5.2643    0.9719   19.3637 C   0  0  0  0  0  0  0  0  0  0  0  0
    5.7789    0.5949   20.5190 C   0  0  0  0  0  0  0  0  0  0  0  0
    5.3176    0.6905   21.8833 C   0  0  0  0  0  0  0  0  0  0  0  0
 20 21  2  0  0  0  0
 19 20  1  0  0  0  0
 21 22  1  0  0  0  0
 18 19  2  0  0  0  0
 22 23  2  0  0  0  0
 18 23  1  0  0  0  0
 17 18  1  0  0  0  0
 23 24  1  0  0  0  0
 15 16  2  0  0  0  0
 15 17  1  0  0  0  0
 14 15  1  0  0  0  0
  8 14  1  0  0  0  0
  7 14  1  0  0  0  0
 12 13  1  0  0  0  0
  8 13  1  0  0  0  0
 11 12  2  0  0  0  0
  7  8  1  0  0  0  0
  8  9  1  0  0  0  0
 10 11  1  0  0  0  0
  6  7  2  0  0  0  0
  5  6  1  0  0  0  0
  9 10  2  0  0  0  0
  2  5  1  0  0  0  0
  2  3  2  0  0  0  0
  1  2  1  0  0  0  0
  2  4  2  0  0  0  0
M  END
> <Shapegauss>
-287.292511

$$$$
