stable:False satoms:6 tatoms:24 sratio:0.25
  -OEChem-08062413113D

 43 45  0     1  0  0  0  0  0999 V2000
    6.4106   -4.9337   26.3296 C   0  0  0  0  0  0  0  0  0  0  0  0
    7.9507   -4.4541   26.1207 S   0  0  0  0  0  0  0  0  0  0  0  0
    8.7888   -5.6587   26.1337 O   0  0  0  0  0  0  0  0  0  0  0  0
    8.3552   -3.5830   27.2023 O   0  0  0  0  0  0  0  0  0  0  0  0
    8.0267   -3.6796   24.6848 N   0  0  0  0  0  0  0  0  0  0  0  0
    8.8738   -2.9757   24.2238 C   0  0  0  0  0  0  0  0  0  0  0  0
    9.4061   -2.0695   23.6784 C   0  0  0  0  0  0  0  0  0  0  0  0
   10.3514   -1.1021   23.5498 C   0  0  1  0  0  0  0  0  0  0  0  0
   11.0148   -0.1478   24.5811 C   0  0  0  0  0  0  0  0  0  0  0  0
   12.0759    0.1879   24.6624 C   0  0  0  0  0  0  0  0  0  0  0  0
   13.1125   -0.2155   24.0082 C   0  0  0  0  0  0  0  0  0  0  0  0
   12.8000   -1.3336   23.0870 C   0  0  0  0  0  0  0  0  0  0  0  0
   11.8963   -1.7808   22.9137 C   0  0  0  0  0  0  0  0  0  0  0  0
    9.7678   -0.6863   22.6134 C   0  0  2  0  0  0  0  0  0  0  0  0
    9.2025    0.0446   21.5877 C   0  0  0  0  0  0  0  0  0  0  0  0
    9.7504    1.0106   21.2406 O   0  0  0  0  0  0  0  0  0  0  0  0
    8.0972   -0.5438   21.1816 N   0  0  0  0  0  0  0  0  0  0  0  0
    7.4832   -0.1050   20.1786 C   0  0  0  0  0  0  0  0  0  0  0  0
    7.5884    0.0263   18.8894 C   0  0  0  0  0  0  0  0  0  0  0  0
    7.2203    0.3737   17.7511 N   0  0  0  0  0  0  0  0  0  0  0  0
    6.1416    0.8823   18.1959 C   0  0  0  0  0  0  0  0  0  0  0  0
    5.6138    1.0168   19.2752 C   0  0  0  0  0  0  0  0  0  0  0  0
    6.0341    0.6114   20.4588 C   0  0  0  0  0  0  0  0  0  0  0  0
    5.4676    0.6809   21.7845 C   0  0  0  0  0  0  0  0  0  0  0  0
    6.3175   -5.4619   27.2900 H   0  0  0  0  0  0  0  0  0  0  0  0
    5.7497   -4.0544   26.3294 H   0  0  0  0  0  0  0  0  0  0  0  0
    6.1226   -5.6090   25.5105 H   0  0  0  0  0  0  0  0  0  0  0  0
    7.2069   -3.1070   24.6765 H   0  0  0  0  0  0  0  0  0  0  0  0
    9.7441   -3.5646   24.4728 H   0  0  0  0  0  0  0  0  0  0  0  0
   10.3488    0.2505   25.3322 H   0  0  0  0  0  0  0  0  0  0  0  0
   12.2619    0.9611   25.3931 H   0  0  0  0  0  0  0  0  0  0  0  0
   14.0974    0.2135   24.1196 H   0  0  0  0  0  0  0  0  0  0  0  0
   13.6345   -1.7273   22.5258 H   0  0  0  0  0  0  0  0  0  0  0  0
   11.7829   -1.8305   21.8207 H   0  0  0  0  0  0  0  0  0  0  0  0
   11.9748   -2.7997   23.3208 H   0  0  0  0  0  0  0  0  0  0  0  0
   10.3261   -1.3250   21.9132 H   0  0  0  0  0  0  0  0  0  0  0  0
    7.7465   -1.3412   21.6726 H   0  0  0  0  0  0  0  0  0  0  0  0
    8.5482   -0.4273   18.6910 H   0  0  0  0  0  0  0  0  0  0  0  0
    5.5417    1.3034   17.4027 H   0  0  0  0  0  0  0  0  0  0  0  0
    4.6692    1.5402   19.2702 H   0  0  0  0  0  0  0  0  0  0  0  0
    4.8514   -0.2117   21.9677 H   0  0  0  0  0  0  0  0  0  0  0  0
    6.2776    0.7259   22.5273 H   0  0  0  0  0  0  0  0  0  0  0  0
    4.8421    1.5818   21.8690 H   0  0  0  0  0  0  0  0  0  0  0  0
 20 21  2  0  0  0  0
 19 20  1  0  0  0  0
 21 22  1  0  0  0  0
 18 19  2  0  0  0  0
 22 23  2  0  0  0  0
 18 23  1  0  0  0  0
 17 18  1  0  0  0  0
 23 24  1  0  0  0  0
 15 16  2  0  0  0  0
 15 17  1  0  0  0  0
 14 15  1  0  0  0  0
  8 14  1  0  0  0  0
  7 14  1  0  0  0  0
 12 13  1  0  0  0  0
  8 13  1  0  0  0  0
 11 12  2  0  0  0  0
  7  8  1  0  0  0  0
  8  9  1  0  0  0  0
 10 11  1  0  0  0  0
  6  7  2  0  0  0  0
  5  6  1  0  0  0  0
  9 10  2  0  0  0  0
  2  5  1  0  0  0  0
  2  3  2  0  0  0  0
  1  2  1  0  0  0  0
  2  4  2  0  0  0  0
  1 25  1  0  0  0  0
  1 26  1  0  0  0  0
  1 27  1  0  0  0  0
  5 28  1  0  0  0  0
  6 29  1  0  0  0  0
  9 30  1  0  0  0  0
 10 31  1  0  0  0  0
 11 32  1  0  0  0  0
 12 33  1  0  0  0  0
 13 34  1  0  0  0  0
 13 35  1  0  0  0  0
 14 36  1  0  0  0  0
 17 37  1  0  0  0  0
 19 38  1  0  0  0  0
 21 39  1  0  0  0  0
 22 40  1  0  0  0  0
 24 41  1  0  0  0  0
 24 42  1  0  0  0  0
 24 43  1  0  0  0  0
M  END
> <Chemgauss4>
-13.406797

$$$$
