stable:False satoms:6 tatoms:24 sratio:0.25
  -OEChem-08062413113D

 43 45  0     1  0  0  0  0  0999 V2000
   -6.2899   -4.8247  -26.3296 C   0  0  0  0  0  0  0  0  0  0  0  0
   -7.8301   -4.3452  -26.1207 S   0  0  0  0  0  0  0  0  0  0  0  0
   -8.6681   -5.5497  -26.1337 O   0  0  0  0  0  0  0  0  0  0  0  0
   -8.2345   -3.4740  -27.2023 O   0  0  0  0  0  0  0  0  0  0  0  0
   -7.9060   -3.5706  -24.6848 N   0  0  0  0  0  0  0  0  0  0  0  0
   -8.7531   -2.8667  -24.2238 C   0  0  0  0  0  0  0  0  0  0  0  0
   -9.2854   -1.9605  -23.6784 C   0  0  0  0  0  0  0  0  0  0  0  0
  -10.2308   -0.9931  -23.5498 C   0  0  1  0  0  0  0  0  0  0  0  0
  -10.8941   -0.0388  -24.5811 C   0  0  0  0  0  0  0  0  0  0  0  0
  -11.9552    0.2969  -24.6624 C   0  0  0  0  0  0  0  0  0  0  0  0
  -12.9919   -0.1065  -24.0082 C   0  0  0  0  0  0  0  0  0  0  0  0
  -12.6793   -1.2246  -23.0870 C   0  0  0  0  0  0  0  0  0  0  0  0
  -11.7756   -1.6718  -22.9137 C   0  0  0  0  0  0  0  0  0  0  0  0
   -9.6471   -0.5773  -22.6134 C   0  0  2  0  0  0  0  0  0  0  0  0
   -9.0818    0.1536  -21.5877 C   0  0  0  0  0  0  0  0  0  0  0  0
   -9.6298    1.1196  -21.2406 O   0  0  0  0  0  0  0  0  0  0  0  0
   -7.9766   -0.4348  -21.1816 N   0  0  0  0  0  0  0  0  0  0  0  0
   -7.3625    0.0040  -20.1786 C   0  0  0  0  0  0  0  0  0  0  0  0
   -7.4677    0.1353  -18.8894 C   0  0  0  0  0  0  0  0  0  0  0  0
   -7.0997    0.4827  -17.7511 N   0  0  0  0  0  0  0  0  0  0  0  0
   -6.0210    0.9913  -18.1959 C   0  0  0  0  0  0  0  0  0  0  0  0
   -5.4932    1.1258  -19.2752 C   0  0  0  0  0  0  0  0  0  0  0  0
   -5.9134    0.7204  -20.4588 C   0  0  0  0  0  0  0  0  0  0  0  0
   -5.3469    0.7899  -21.7845 C   0  0  0  0  0  0  0  0  0  0  0  0
   -6.1969   -5.3529  -27.2900 H   0  0  0  0  0  0  0  0  0  0  0  0
   -5.6290   -3.9454  -26.3294 H   0  0  0  0  0  0  0  0  0  0  0  0
   -6.0020   -5.5001  -25.5105 H   0  0  0  0  0  0  0  0  0  0  0  0
   -7.0863   -2.9980  -24.6765 H   0  0  0  0  0  0  0  0  0  0  0  0
   -9.6235   -3.4556  -24.4728 H   0  0  0  0  0  0  0  0  0  0  0  0
  -10.2281    0.3595  -25.3322 H   0  0  0  0  0  0  0  0  0  0  0  0
  -12.1412    1.0700  -25.3931 H   0  0  0  0  0  0  0  0  0  0  0  0
  -13.9767    0.3225  -24.1196 H   0  0  0  0  0  0  0  0  0  0  0  0
  -13.5138   -1.6183  -22.5258 H   0  0  0  0  0  0  0  0  0  0  0  0
  -11.6622   -1.7215  -21.8207 H   0  0  0  0  0  0  0  0  0  0  0  0
  -11.8541   -2.6907  -23.3208 H   0  0  0  0  0  0  0  0  0  0  0  0
  -10.2055   -1.2160  -21.9132 H   0  0  0  0  0  0  0  0  0  0  0  0
   -7.6258   -1.2322  -21.6726 H   0  0  0  0  0  0  0  0  0  0  0  0
   -8.4276   -0.3183  -18.6910 H   0  0  0  0  0  0  0  0  0  0  0  0
   -5.4211    1.4124  -17.4027 H   0  0  0  0  0  0  0  0  0  0  0  0
   -4.5485    1.6492  -19.2702 H   0  0  0  0  0  0  0  0  0  0  0  0
   -4.7307   -0.1027  -21.9677 H   0  0  0  0  0  0  0  0  0  0  0  0
   -6.1570    0.8349  -22.5273 H   0  0  0  0  0  0  0  0  0  0  0  0
   -4.7214    1.6908  -21.8690 H   0  0  0  0  0  0  0  0  0  0  0  0
 20 21  2  0  0  0  0
 19 20  1  0  0  0  0
 21 22  1  0  0  0  0
 18 19  2  0  0  0  0
 22 23  2  0  0  0  0
 18 23  1  0  0  0  0
 17 18  1  0  0  0  0
 23 24  1  0  0  0  0
 15 16  2  0  0  0  0
 15 17  1  0  0  0  0
 14 15  1  0  0  0  0
  8 14  1  0  0  0  0
  7 14  1  0  0  0  0
 12 13  1  0  0  0  0
  8 13  1  0  0  0  0
 11 12  2  0  0  0  0
  7  8  1  0  0  0  0
  8  9  1  0  0  0  0
 10 11  1  0  0  0  0
  6  7  2  0  0  0  0
  5  6  1  0  0  0  0
  9 10  2  0  0  0  0
  2  5  1  0  0  0  0
  2  3  2  0  0  0  0
  1  2  1  0  0  0  0
  2  4  2  0  0  0  0
  1 25  1  0  0  0  0
  1 26  1  0  0  0  0
  1 27  1  0  0  0  0
  5 28  1  0  0  0  0
  6 29  1  0  0  0  0
  9 30  1  0  0  0  0
 10 31  1  0  0  0  0
 11 32  1  0  0  0  0
 12 33  1  0  0  0  0
 13 34  1  0  0  0  0
 13 35  1  0  0  0  0
 14 36  1  0  0  0  0
 17 37  1  0  0  0  0
 19 38  1  0  0  0  0
 21 39  1  0  0  0  0
 22 40  1  0  0  0  0
 24 41  1  0  0  0  0
 24 42  1  0  0  0  0
 24 43  1  0  0  0  0
M  END
> <Chemgauss4>
-13.255485

$$$$
