REMARK  6 active torsions:
REMARK  status: ('A' for Active; 'I' for Inactive)
REMARK    1  A    between atoms: C_1  and  C_12 
REMARK    2  A    between atoms: C_1  and  C_11 
REMARK    3  A    between atoms: C_2  and  N_10 
REMARK    4  A    between atoms: C_2  and  C_6 
REMARK    5  A    between atoms: N_10  and  C_13 
REMARK    6  A    between atoms: C_11  and  C_13 
ROOT
HETATM    1  C   UNL     1       9.849  -0.475  21.842  1.00  0.00     0.148 C 
ENDROOT
BRANCH   1   2
HETATM    2  N   UNL     1       8.714  -0.060  21.620  1.00  0.00    -0.460 NA
BRANCH   2   3
HETATM    3  C   UNL     1       7.373   0.296  21.582  1.00  0.00     0.260 C 
BRANCH   3   4
HETATM    4  C   UNL     1       6.549   0.424  22.851  1.00  0.00     0.086 C 
HETATM    5  N   UNL     1       6.123  -0.541  23.601  1.00  0.00    -0.409 N 
HETATM    6  H   UNL     1       5.793  -1.436  23.250  1.00  0.00     0.155 HD
HETATM    7  H   UNL     1       6.052  -0.502  24.604  1.00  0.00     0.155 HD
ENDBRANCH   3   4
ENDBRANCH   2   3
ENDBRANCH   1   2
BRANCH   1   8
HETATM    8  C   UNL     1      10.320  -0.674  23.279  1.00  0.00     0.060 C 
BRANCH   8   9
HETATM    9  C   UNL     1      10.840  -2.072  23.480  1.00  0.00     0.018 C 
BRANCH   9  10
HETATM   10  C   UNL     1       9.993  -2.954  22.456  1.00  0.00     0.047 A 
HETATM   11  C   UNL     1       9.640  -2.311  21.372  1.00  0.00     0.074 A 
HETATM   12  C   UNL     1       8.529  -2.621  22.233  1.00  0.00     0.181 A 
HETATM   13  O   UNL     1       7.798  -2.879  23.265  1.00  0.00    -0.313 OA
ENDBRANCH   9  10
ENDBRANCH   8   9
ENDBRANCH   1   8
TORSDOF 6
