stable:False satoms:6 tatoms:24 sratio:0.25
  -OEChem-07092417483D

 24 25  0     1  0  0  0  0  0999 V2000
    6.6355   -4.8531   26.4467 C   0  0  0  0  0  0  0  0  0  0  0  0
    8.1955   -4.2951   26.1083 S   0  0  0  0  0  0  0  0  0  0  0  0
    9.0635   -5.4418   26.0036 O   0  0  0  0  0  0  0  0  0  0  0  0
    8.6155   -3.4296   27.1963 O   0  0  0  0  0  0  0  0  0  0  0  0
    8.1191   -3.5439   24.6850 N   0  0  0  0  0  0  0  0  0  0  0  0
    9.0097   -2.9011   24.1654 C   0  0  0  0  0  0  0  0  0  0  0  0
    9.4479   -1.9648   23.5322 C   0  0  0  0  0  0  0  0  0  0  0  0
   10.3079   -1.1291   23.2616 C   0  0  1  0  0  0  0  0  0  0  0  0
   11.0439    0.0603   24.3332 C   0  0  0  0  0  0  0  0  0  0  0  0
   12.0355    0.3142   24.2569 C   0  0  0  0  0  0  0  0  0  0  0  0
   13.0858   -0.2222   23.3987 C   0  0  0  0  0  0  0  0  0  0  0  0
   12.7271   -1.2251   22.6455 C   0  0  0  0  0  0  0  0  0  0  0  0
   11.7689   -1.7533   22.4770 C   0  0  0  0  0  0  0  0  0  0  0  0
    9.7214   -0.5310   22.3621 C   0  0  0  0  0  0  0  0  0  0  0  0
    9.0629    0.0508   21.3910 C   0  0  0  0  0  0  0  0  0  0  0  0
    9.5275    1.0197   21.0057 O   0  0  0  0  0  0  0  0  0  0  0  0
    7.9331   -0.5903   21.0705 N   0  0  0  0  0  0  0  0  0  0  0  0
    7.1793   -0.1309   20.1842 C   0  0  0  0  0  0  0  0  0  0  0  0
    7.2472   -0.0756   18.8153 C   0  0  0  0  0  0  0  0  0  0  0  0
    6.7771    0.2962   17.8080 N   0  0  0  0  0  0  0  0  0  0  0  0
    5.6571    0.8902   18.2086 C   0  0  0  0  0  0  0  0  0  0  0  0
    5.2555    0.9899   19.3959 C   0  0  0  0  0  0  0  0  0  0  0  0
    5.8533    0.5419   20.5350 C   0  0  0  0  0  0  0  0  0  0  0  0
    5.3139    0.6336   22.0100 C   0  0  0  0  0  0  0  0  0  0  0  0
 20 21  2  0  0  0  0
 19 20  1  0  0  0  0
 21 22  1  0  0  0  0
 18 19  2  0  0  0  0
 22 23  2  0  0  0  0
 18 23  1  0  0  0  0
 17 18  1  0  0  0  0
 23 24  1  0  0  0  0
 15 16  2  0  0  0  0
 15 17  1  0  0  0  0
 14 15  1  0  0  0  0
  8 14  1  0  0  0  0
 12 13  1  0  0  0  0
  8 13  1  0  0  0  0
 11 12  2  0  0  0  0
  7  8  1  0  0  0  0
  8  9  1  0  0  0  0
 10 11  1  0  0  0  0
  6  7  2  3  0  0  0
  5  6  1  0  0  0  0
  9 10  2  0  0  0  0
  2  5  1  0  0  0  0
  2  3  2  0  0  0  0
  1  2  1  0  0  0  0
  2  4  2  0  0  0  0
M  END
> <Shapegauss>
-286.421753

$$$$
