stable:False satoms:6 tatoms:24 sratio:0.25
  -OEChem-08062415453D

 45 46  0     1  0  0  0  0  0999 V2000
    6.2338   -5.1041   25.9748 C   0  0  0  0  0  0  0  0  0  0  0  0
    7.8283   -4.5550   25.8500 S   0  0  0  0  0  0  0  0  0  0  0  0
    8.6898   -5.7088   25.7740 O   0  0  0  0  0  0  0  0  0  0  0  0
    8.1310   -3.7638   27.0297 O   0  0  0  0  0  0  0  0  0  0  0  0
    7.9230   -3.7187   24.4761 N   0  0  0  0  0  0  0  0  0  0  0  0
    8.8741   -3.0621   24.1011 C   0  0  0  0  0  0  0  0  0  0  0  0
    9.3920   -2.0977   23.5803 C   0  0  0  0  0  0  0  0  0  0  0  0
   10.2865   -1.2629   23.4607 C   0  0  1  0  0  0  0  0  0  0  0  0
   10.9085   -0.1531   24.6798 C   0  0  0  0  0  0  0  0  0  0  0  0
   11.9051    0.0871   24.7319 C   0  0  0  0  0  0  0  0  0  0  0  0
   13.0405   -0.4158   23.9668 C   0  0  0  0  0  0  0  0  0  0  0  0
   12.7589   -1.3653   23.1176 C   0  0  0  0  0  0  0  0  0  0  0  0
   11.8204   -1.8652   22.8096 C   0  0  0  0  0  0  0  0  0  0  0  0
    9.8130   -0.6016   22.5391 C   0  0  0  0  0  0  0  0  0  0  0  0
    9.2761    0.0490   21.5373 C   0  0  0  0  0  0  0  0  0  0  0  0
    9.7923    1.0307   21.2673 O   0  0  0  0  0  0  0  0  0  0  0  0
    8.1832   -0.5514   21.0522 N   0  0  0  0  0  0  0  0  0  0  0  0
    7.5405   -0.0264   20.1162 C   0  0  0  0  0  0  0  0  0  0  0  0
    7.7647    0.1094   18.7697 C   0  0  0  0  0  0  0  0  0  0  0  0
    7.4167    0.5492   17.7405 N   0  0  0  0  0  0  0  0  0  0  0  0
    6.2650    1.1382   18.0475 C   0  0  0  0  0  0  0  0  0  0  0  0
    5.7317    1.1739   19.1856 C   0  0  0  0  0  0  0  0  0  0  0  0
    6.1907    0.6479   20.3553 C   0  0  0  0  0  0  0  0  0  0  0  0
    5.4876    0.6610   21.7626 C   0  0  0  0  0  0  0  0  0  0  0  0
    6.1167   -5.6842   26.9020 H   0  0  0  0  0  0  0  0  0  0  0  0
    5.5498   -4.2427   25.9925 H   0  0  0  0  0  0  0  0  0  0  0  0
    5.9973   -5.7423   25.1107 H   0  0  0  0  0  0  0  0  0  0  0  0
    7.1577   -3.0759   24.5079 H   0  0  0  0  0  0  0  0  0  0  0  0
    9.7199   -3.6691   24.3889 H   0  0  0  0  0  0  0  0  0  0  0  0
    8.6911   -1.8258   22.8050 H   0  0  0  0  0  0  0  0  0  0  0  0
   10.2237    0.2857   25.3903 H   0  0  0  0  0  0  0  0  0  0  0  0
   12.1531    0.8325   25.4730 H   0  0  0  0  0  0  0  0  0  0  0  0
   14.0412   -0.0303   24.0940 H   0  0  0  0  0  0  0  0  0  0  0  0
   13.6295   -1.7459   22.6042 H   0  0  0  0  0  0  0  0  0  0  0  0
   11.7586   -1.7923   21.7138 H   0  0  0  0  0  0  0  0  0  0  0  0
   11.9046   -2.9221   23.1027 H   0  0  0  0  0  0  0  0  0  0  0  0
   10.8211   -0.3107   22.2086 H   0  0  0  0  0  0  0  0  0  0  0  0
    9.4304    0.1454   23.2502 H   0  0  0  0  0  0  0  0  0  0  0  0
    7.8793   -1.4221   21.4389 H   0  0  0  0  0  0  0  0  0  0  0  0
    8.6741   -0.4361   18.5654 H   0  0  0  0  0  0  0  0  0  0  0  0
    5.7383    1.6321   17.2443 H   0  0  0  0  0  0  0  0  0  0  0  0
    4.7846    1.6898   19.2434 H   0  0  0  0  0  0  0  0  0  0  0  0
    4.8487   -0.2289   21.8621 H   0  0  0  0  0  0  0  0  0  0  0  0
    6.2515    0.6540   22.5541 H   0  0  0  0  0  0  0  0  0  0  0  0
    4.8711    1.5672   21.8560 H   0  0  0  0  0  0  0  0  0  0  0  0
 20 21  2  0  0  0  0
 19 20  1  0  0  0  0
 21 22  1  0  0  0  0
 18 19  2  0  0  0  0
 22 23  2  0  0  0  0
 18 23  1  0  0  0  0
 17 18  1  0  0  0  0
 23 24  1  0  0  0  0
 15 16  2  0  0  0  0
 15 17  1  0  0  0  0
 14 15  1  0  0  0  0
  8 14  1  0  0  0  0
 12 13  1  0  0  0  0
  8 13  1  0  0  0  0
 11 12  2  0  0  0  0
  7  8  1  0  0  0  0
  8  9  1  0  0  0  0
 10 11  1  0  0  0  0
  6  7  2  3  0  0  0
  5  6  1  0  0  0  0
  9 10  2  0  0  0  0
  2  5  1  0  0  0  0
  2  3  2  0  0  0  0
  1  2  1  0  0  0  0
  2  4  2  0  0  0  0
  1 25  1  0  0  0  0
  1 26  1  0  0  0  0
  1 27  1  0  0  0  0
  5 28  1  0  0  0  0
  6 29  1  0  0  0  0
  7 30  1  0  0  0  0
  9 31  1  0  0  0  0
 10 32  1  0  0  0  0
 11 33  1  0  0  0  0
 12 34  1  0  0  0  0
 13 35  1  0  0  0  0
 13 36  1  0  0  0  0
 14 37  1  0  0  0  0
 14 38  1  0  0  0  0
 17 39  1  0  0  0  0
 19 40  1  0  0  0  0
 21 41  1  0  0  0  0
 22 42  1  0  0  0  0
 24 43  1  0  0  0  0
 24 44  1  0  0  0  0
 24 45  1  0  0  0  0
M  END
> <Chemgauss4>
-12.754932

$$$$
