stable:False satoms:6 tatoms:24 sratio:0.25
  -OEChem-08062415453D

 45 46  0     1  0  0  0  0  0999 V2000
   -6.1665   -5.3388  -25.9131 C   0  0  0  0  0  0  0  0  0  0  0  0
   -7.7610   -4.7897  -25.7884 S   0  0  0  0  0  0  0  0  0  0  0  0
   -8.6225   -5.9435  -25.7124 O   0  0  0  0  0  0  0  0  0  0  0  0
   -8.0637   -3.9984  -26.9681 O   0  0  0  0  0  0  0  0  0  0  0  0
   -7.8557   -3.9534  -24.4145 N   0  0  0  0  0  0  0  0  0  0  0  0
   -8.8068   -3.2968  -24.0395 C   0  0  0  0  0  0  0  0  0  0  0  0
   -9.3247   -2.3324  -23.5187 C   0  0  0  0  0  0  0  0  0  0  0  0
  -10.2192   -1.4976  -23.3991 C   0  0  1  0  0  0  0  0  0  0  0  0
  -10.8412   -0.3878  -24.6181 C   0  0  0  0  0  0  0  0  0  0  0  0
  -11.8378   -0.1476  -24.6703 C   0  0  0  0  0  0  0  0  0  0  0  0
  -12.9731   -0.6505  -23.9052 C   0  0  0  0  0  0  0  0  0  0  0  0
  -12.6916   -1.6000  -23.0560 C   0  0  0  0  0  0  0  0  0  0  0  0
  -11.7531   -2.0999  -22.7480 C   0  0  0  0  0  0  0  0  0  0  0  0
   -9.7457   -0.8363  -22.4774 C   0  0  0  0  0  0  0  0  0  0  0  0
   -9.2088   -0.1857  -21.4756 C   0  0  0  0  0  0  0  0  0  0  0  0
   -9.7250    0.7960  -21.2057 O   0  0  0  0  0  0  0  0  0  0  0  0
   -8.1159   -0.7861  -20.9905 N   0  0  0  0  0  0  0  0  0  0  0  0
   -7.4732   -0.2611  -20.0545 C   0  0  0  0  0  0  0  0  0  0  0  0
   -7.6974   -0.1253  -18.7081 C   0  0  0  0  0  0  0  0  0  0  0  0
   -7.3494    0.3145  -17.6788 N   0  0  0  0  0  0  0  0  0  0  0  0
   -6.1977    0.9035  -17.9858 C   0  0  0  0  0  0  0  0  0  0  0  0
   -5.6644    0.9392  -19.1239 C   0  0  0  0  0  0  0  0  0  0  0  0
   -6.1234    0.4133  -20.2937 C   0  0  0  0  0  0  0  0  0  0  0  0
   -5.4203    0.4263  -21.7010 C   0  0  0  0  0  0  0  0  0  0  0  0
   -6.0494   -5.9189  -26.8403 H   0  0  0  0  0  0  0  0  0  0  0  0
   -5.4825   -4.4774  -25.9309 H   0  0  0  0  0  0  0  0  0  0  0  0
   -5.9300   -5.9770  -25.0490 H   0  0  0  0  0  0  0  0  0  0  0  0
   -7.0904   -3.3106  -24.4463 H   0  0  0  0  0  0  0  0  0  0  0  0
   -9.6525   -3.9038  -24.3273 H   0  0  0  0  0  0  0  0  0  0  0  0
   -8.6238   -2.0605  -22.7434 H   0  0  0  0  0  0  0  0  0  0  0  0
  -10.1564    0.0510  -25.3287 H   0  0  0  0  0  0  0  0  0  0  0  0
  -12.0857    0.5978  -25.4114 H   0  0  0  0  0  0  0  0  0  0  0  0
  -13.9739   -0.2650  -24.0323 H   0  0  0  0  0  0  0  0  0  0  0  0
  -13.5622   -1.9806  -22.5426 H   0  0  0  0  0  0  0  0  0  0  0  0
  -11.6913   -2.0270  -21.6522 H   0  0  0  0  0  0  0  0  0  0  0  0
  -11.8372   -3.1568  -23.0411 H   0  0  0  0  0  0  0  0  0  0  0  0
  -10.7538   -0.5454  -22.1470 H   0  0  0  0  0  0  0  0  0  0  0  0
   -9.3631   -0.0893  -23.1885 H   0  0  0  0  0  0  0  0  0  0  0  0
   -7.8120   -1.6568  -21.3772 H   0  0  0  0  0  0  0  0  0  0  0  0
   -8.6068   -0.6708  -18.5038 H   0  0  0  0  0  0  0  0  0  0  0  0
   -5.6710    1.3974  -17.1827 H   0  0  0  0  0  0  0  0  0  0  0  0
   -4.7173    1.4551  -19.1817 H   0  0  0  0  0  0  0  0  0  0  0  0
   -4.7813   -0.4636  -21.8005 H   0  0  0  0  0  0  0  0  0  0  0  0
   -6.1842    0.4193  -22.4924 H   0  0  0  0  0  0  0  0  0  0  0  0
   -4.8038    1.3325  -21.7944 H   0  0  0  0  0  0  0  0  0  0  0  0
 20 21  2  0  0  0  0
 19 20  1  0  0  0  0
 21 22  1  0  0  0  0
 18 19  2  0  0  0  0
 22 23  2  0  0  0  0
 18 23  1  0  0  0  0
 17 18  1  0  0  0  0
 23 24  1  0  0  0  0
 15 16  2  0  0  0  0
 15 17  1  0  0  0  0
 14 15  1  0  0  0  0
  8 14  1  0  0  0  0
 12 13  1  0  0  0  0
  8 13  1  0  0  0  0
 11 12  2  0  0  0  0
  7  8  1  0  0  0  0
  8  9  1  0  0  0  0
 10 11  1  0  0  0  0
  6  7  2  3  0  0  0
  5  6  1  0  0  0  0
  9 10  2  0  0  0  0
  2  5  1  0  0  0  0
  2  3  2  0  0  0  0
  1  2  1  0  0  0  0
  2  4  2  0  0  0  0
  1 25  1  0  0  0  0
  1 26  1  0  0  0  0
  1 27  1  0  0  0  0
  5 28  1  0  0  0  0
  6 29  1  0  0  0  0
  7 30  1  0  0  0  0
  9 31  1  0  0  0  0
 10 32  1  0  0  0  0
 11 33  1  0  0  0  0
 12 34  1  0  0  0  0
 13 35  1  0  0  0  0
 13 36  1  0  0  0  0
 14 37  1  0  0  0  0
 14 38  1  0  0  0  0
 17 39  1  0  0  0  0
 19 40  1  0  0  0  0
 21 41  1  0  0  0  0
 22 42  1  0  0  0  0
 24 43  1  0  0  0  0
 24 44  1  0  0  0  0
 24 45  1  0  0  0  0
M  END
> <Chemgauss4>
-12.498564

$$$$
