stable:False satoms:11 tatoms:24 sratio:0.4583333333333333
  -OEChem-07092417423D

 24 24  0     0  0  0  0  0  0999 V2000
    6.4695   -4.8394   26.4107 Cl  0  0  0  0  0  0  0  0  0  0  0  0
    8.2807   -4.2562   26.0348 S   0  0  0  0  0  0  0  0  0  0  0  0
    9.0298   -5.4759   25.9175 O   0  0  0  0  0  0  0  0  0  0  0  0
    8.6526   -3.4103   27.1044 O   0  0  0  0  0  0  0  0  0  0  0  0
    8.1344   -3.5221   24.6221 N   0  0  0  0  0  0  0  0  0  0  0  0
    8.9269   -2.8921   24.0643 C   0  0  0  0  0  0  0  0  0  0  0  0
    9.4139   -2.0080   23.5893 C   0  0  0  0  0  0  0  0  0  0  0  0
   10.1743   -0.9211   23.4301 C   0  0  0  0  0  0  0  0  0  0  0  0
   11.1659   -0.2030   24.2995 C   0  0  0  0  0  0  0  0  0  0  0  0
   12.1514    0.2226   24.3730 N   0  3  0  0  0  0  0  0  0  0  0  0
   12.9314   -0.2521   23.4396 C   0  0  0  0  0  0  0  0  0  0  0  0
   12.6749   -1.1005   22.7359 C   0  0  0  0  0  2  0  0  0  0  0  0
   12.1309   -1.8292   22.3103 H   0  0  0  0  0  0  0  0  0  0  0  0
    9.7129   -0.5953   22.4431 C   0  0  0  0  0  0  0  0  0  0  0  0
    9.0293    0.0518   21.3845 C   0  0  0  0  0  0  0  0  0  0  0  0
    9.5138    0.9729   20.7823 O   0  0  0  0  0  0  0  0  0  0  0  0
    7.8098   -0.4797   21.1976 N   0  0  0  0  0  0  0  0  0  0  0  0
    7.0722   -0.0209   20.1998 C   0  0  0  0  0  0  0  0  0  0  0  0
    7.3680   -0.0332   18.9434 N   0  0  0  0  0  0  0  0  0  0  0  0
    6.7404    0.3840   17.9857 N   0  0  0  0  0  0  0  0  0  0  0  0
    5.7454    0.8109   18.3761 C   0  0  0  0  0  0  0  0  0  0  0  0
    5.3047    0.9189   19.5025 C   0  0  0  0  0  0  0  0  0  0  0  0
    5.7753    0.5618   20.5818 C   0  0  0  0  0  0  0  0  0  0  0  0
    5.3755    0.6258   21.5683 H   0  0  0  0  0  0  0  0  0  0  0  0
 20 21  2  0  0  0  0
 19 20  1  0  0  0  0
 21 22  1  0  0  0  0
 18 19  2  0  0  0  0
 22 23  2  0  0  0  0
 18 23  1  0  0  0  0
 17 18  1  0  0  0  0
 23 24  1  0  0  0  0
 15 16  2  0  0  0  0
 15 17  1  0  0  0  0
 14 15  1  0  0  0  0
 12 13  1  0  0  0  0
  8 14  2  3  0  0  0
 11 12  1  0  0  0  0
  7  8  1  0  0  0  0
  8  9  1  0  0  0  0
 10 11  1  0  0  0  0
  6  7  3  0  0  0  0
  5  6  1  0  0  0  0
  9 10  1  0  0  0  0
  2  5  1  0  0  0  0
  2  3  2  0  0  0  0
  1  2  1  0  0  0  0
  2  4  2  0  0  0  0
M  CHG  1  10   1
M  END
> <Shapegauss>
-270.808350

$$$$
