stable:False satoms:11 tatoms:24 sratio:0.4583333333333333
  -OEChem-08062412083D

 35 35  0     0  0  0  0  0  0999 V2000
   -5.8471   -5.3781  -25.6846 Cl  0  0  0  0  0  0  0  0  0  0  0  0
   -7.6970   -4.8093  -25.5557 S   0  0  0  0  0  0  0  0  0  0  0  0
   -8.4388   -6.0343  -25.4475 O   0  0  0  0  0  0  0  0  0  0  0  0
   -7.9540   -4.0385  -26.7123 O   0  0  0  0  0  0  0  0  0  0  0  0
   -7.7238   -3.9868  -24.1851 N   0  0  0  0  0  0  0  0  0  0  0  0
   -8.5834   -3.3397  -23.7625 C   0  0  0  0  0  0  0  0  0  0  0  0
   -9.1332   -2.4380  -23.4033 C   0  0  0  0  0  0  0  0  0  0  0  0
   -9.9208   -1.3589  -23.4013 C   0  0  0  0  0  0  0  0  0  0  0  0
  -10.8149   -0.7157  -24.4220 C   0  0  0  0  0  0  0  0  0  0  0  0
  -11.7907   -0.3154  -24.6344 N   0  3  0  0  0  0  0  0  0  0  0  0
  -12.6669   -0.7472  -23.7679 C   0  0  0  0  0  0  0  0  0  0  0  0
  -12.4822   -1.5454  -22.9871 C   0  0  0  0  0  2  0  0  0  0  0  0
  -11.9815   -2.2354  -22.4568 H   0  0  0  0  0  0  0  0  0  0  0  0
   -9.5805   -0.9637  -22.3907 C   0  0  0  0  0  0  0  0  0  0  0  0
   -9.0318   -0.2390  -21.3042 C   0  0  0  0  0  0  0  0  0  0  0  0
   -9.5942    0.7075  -20.8210 O   0  0  0  0  0  0  0  0  0  0  0  0
   -7.8352   -0.7334  -20.9460 N   0  0  0  0  0  0  0  0  0  0  0  0
   -7.2234   -0.1993  -19.9017 C   0  0  0  0  0  0  0  0  0  0  0  0
   -7.6618   -0.1401  -18.6890 N   0  0  0  0  0  0  0  0  0  0  0  0
   -7.1541    0.3478  -17.6943 N   0  0  0  0  0  0  0  0  0  0  0  0
   -6.1264    0.7697  -17.9949 C   0  0  0  0  0  0  0  0  0  0  0  0
   -5.5603    0.8170  -19.0682 C   0  0  0  0  0  0  0  0  0  0  0  0
   -5.8987    0.3847  -20.1693 C   0  0  0  0  0  0  0  0  0  0  0  0
   -5.3888    0.3959  -21.1058 H   0  0  0  0  0  0  0  0  0  0  0  0
   -6.9444   -3.3635  -24.2479 H   0  0  0  0  0  0  0  0  0  0  0  0
  -10.1981    0.1573  -24.6816 H   0  0  0  0  0  0  0  0  0  0  0  0
  -10.7457   -1.4651  -25.2243 H   0  0  0  0  0  0  0  0  0  0  0  0
  -12.0692   -0.5994  -25.5519 H   0  0  0  0  0  0  0  0  0  0  0  0
  -13.5108   -1.1179  -24.3683 H   0  0  0  0  0  0  0  0  0  0  0  0
  -12.9813    0.1434  -23.2042 H   0  0  0  0  0  0  0  0  0  0  0  0
  -10.0079   -1.7604  -21.8001 H   0  0  0  0  0  0  0  0  0  0  0  0
   -7.4176   -1.4857  -21.4555 H   0  0  0  0  0  0  0  0  0  0  0  0
   -5.5663    1.1998  -17.1777 H   0  0  0  0  0  0  0  0  0  0  0  0
   -4.6047    1.3200  -19.0539 H   0  0  0  0  0  0  0  0  0  0  0  0
  -11.7520    0.6830  -24.5919 H   0  0  0  0  0  0  0  0  0  0  0  0
 20 21  2  0  0  0  0
 19 20  1  0  0  0  0
 21 22  1  0  0  0  0
 18 19  2  0  0  0  0
 22 23  2  0  0  0  0
 18 23  1  0  0  0  0
 17 18  1  0  0  0  0
 23 24  1  0  0  0  0
 15 16  2  0  0  0  0
 15 17  1  0  0  0  0
 14 15  1  0  0  0  0
 12 13  1  0  0  0  0
  8 14  2  3  0  0  0
 11 12  1  0  0  0  0
  7  8  1  0  0  0  0
  8  9  1  0  0  0  0
 10 11  1  0  0  0  0
  6  7  3  0  0  0  0
  5  6  1  0  0  0  0
  9 10  1  0  0  0  0
  2  5  1  0  0  0  0
  2  3  2  0  0  0  0
  1  2  1  0  0  0  0
  2  4  2  0  0  0  0
  5 25  1  0  0  0  0
  9 26  1  0  0  0  0
  9 27  1  0  0  0  0
 10 28  1  0  0  0  0
 11 29  1  0  0  0  0
 11 30  1  0  0  0  0
 14 31  1  0  0  0  0
 17 32  1  0  0  0  0
 21 33  1  0  0  0  0
 22 34  1  0  0  0  0
 10 35  1  0  0  0  0
M  CHG  1  10   1
M  END
> <Chemgauss4>
-10.949303

$$$$
