stable:False satoms:11 tatoms:24 sratio:0.4583333333333333
  -OEChem-08062412093D

 35 35  0     0  0  0  0  0  0999 V2000
    5.9411   -5.0862   25.9186 Cl  0  0  0  0  0  0  0  0  0  0  0  0
    7.7909   -4.5175   25.7897 S   0  0  0  0  0  0  0  0  0  0  0  0
    8.5327   -5.7425   25.6815 O   0  0  0  0  0  0  0  0  0  0  0  0
    8.0480   -3.7467   26.9463 O   0  0  0  0  0  0  0  0  0  0  0  0
    7.8178   -3.6950   24.4190 N   0  0  0  0  0  0  0  0  0  0  0  0
    8.6773   -3.0479   23.9965 C   0  0  0  0  0  0  0  0  0  0  0  0
    9.2272   -2.1462   23.6373 C   0  0  0  0  0  0  0  0  0  0  0  0
   10.0148   -1.0670   23.6352 C   0  0  0  0  0  0  0  0  0  0  0  0
   10.9088   -0.4239   24.6560 C   0  0  0  0  0  0  0  0  0  0  0  0
   11.8847   -0.0235   24.8684 N   0  3  0  0  0  0  0  0  0  0  0  0
   12.7608   -0.4554   24.0019 C   0  0  0  0  0  0  0  0  0  0  0  0
   12.5762   -1.2536   23.2211 C   0  0  0  0  0  2  0  0  0  0  0  0
   12.0755   -1.9436   22.6908 H   0  0  0  0  0  0  0  0  0  0  0  0
    9.6744   -0.6719   22.6247 C   0  0  0  0  0  0  0  0  0  0  0  0
    9.1257    0.0528   21.5382 C   0  0  0  0  0  0  0  0  0  0  0  0
    9.6882    0.9993   21.0550 O   0  0  0  0  0  0  0  0  0  0  0  0
    7.9291   -0.4416   21.1799 N   0  0  0  0  0  0  0  0  0  0  0  0
    7.3173    0.0925   20.1356 C   0  0  0  0  0  0  0  0  0  0  0  0
    7.7557    0.1517   18.9230 N   0  0  0  0  0  0  0  0  0  0  0  0
    7.2481    0.6396   17.9283 N   0  0  0  0  0  0  0  0  0  0  0  0
    6.2203    1.0615   18.2289 C   0  0  0  0  0  0  0  0  0  0  0  0
    5.6542    1.1088   19.3022 C   0  0  0  0  0  0  0  0  0  0  0  0
    5.9927    0.6765   20.4033 C   0  0  0  0  0  0  0  0  0  0  0  0
    5.4827    0.6877   21.3397 H   0  0  0  0  0  0  0  0  0  0  0  0
    7.0383   -3.0717   24.4819 H   0  0  0  0  0  0  0  0  0  0  0  0
   10.2921    0.4492   24.9156 H   0  0  0  0  0  0  0  0  0  0  0  0
   10.8396   -1.1733   25.4583 H   0  0  0  0  0  0  0  0  0  0  0  0
   12.1632   -0.3076   25.7859 H   0  0  0  0  0  0  0  0  0  0  0  0
   13.6047   -0.8261   24.6023 H   0  0  0  0  0  0  0  0  0  0  0  0
   13.0752    0.4353   23.4381 H   0  0  0  0  0  0  0  0  0  0  0  0
   10.1018   -1.4686   22.0340 H   0  0  0  0  0  0  0  0  0  0  0  0
    7.5115   -1.1939   21.6895 H   0  0  0  0  0  0  0  0  0  0  0  0
    5.6602    1.4916   17.4117 H   0  0  0  0  0  0  0  0  0  0  0  0
    4.6986    1.6119   19.2879 H   0  0  0  0  0  0  0  0  0  0  0  0
   11.8460    0.9748   24.8259 H   0  0  0  0  0  0  0  0  0  0  0  0
 20 21  2  0  0  0  0
 19 20  1  0  0  0  0
 21 22  1  0  0  0  0
 18 19  2  0  0  0  0
 22 23  2  0  0  0  0
 18 23  1  0  0  0  0
 17 18  1  0  0  0  0
 23 24  1  0  0  0  0
 15 16  2  0  0  0  0
 15 17  1  0  0  0  0
 14 15  1  0  0  0  0
 12 13  1  0  0  0  0
  8 14  2  3  0  0  0
 11 12  1  0  0  0  0
  7  8  1  0  0  0  0
  8  9  1  0  0  0  0
 10 11  1  0  0  0  0
  6  7  3  0  0  0  0
  5  6  1  0  0  0  0
  9 10  1  0  0  0  0
  2  5  1  0  0  0  0
  2  3  2  0  0  0  0
  1  2  1  0  0  0  0
  2  4  2  0  0  0  0
  5 25  1  0  0  0  0
  9 26  1  0  0  0  0
  9 27  1  0  0  0  0
 10 28  1  0  0  0  0
 11 29  1  0  0  0  0
 11 30  1  0  0  0  0
 14 31  1  0  0  0  0
 17 32  1  0  0  0  0
 21 33  1  0  0  0  0
 22 34  1  0  0  0  0
 10 35  1  0  0  0  0
M  CHG  1  10   1
M  END
> <Chemgauss4>
-10.526386

$$$$
