MODEL 1
REMARK VINA RESULT:    -5.297      0.000      0.000
REMARK INTER + INTRA:          -6.862
REMARK INTER:                  -6.846
REMARK INTRA:                  -0.016
REMARK UNBOUND:                -0.016
REMARK  5 active torsions:
REMARK  status: ('A' for Active; 'I' for Inactive)
REMARK    1  A    between atoms: N_2  and  C_4 
REMARK    2  A    between atoms: C_4  and  N_5 
REMARK    3  A    between atoms: C_7  and  S_11 
REMARK    4  A    between atoms: C_7  and  C_8 
REMARK       I    between atoms: N_12  and  C_14 
REMARK       I    between atoms: C_14  and  N_16 
REMARK    5  A    between atoms: C_18  and  C_19 
ROOT
HETATM    1  N   UNL     1       3.844   1.211  19.504  1.00  0.00    -0.184 NA
HETATM    2  C   UNL     1       4.830   0.845  19.399  1.00  0.00     0.140 C 
HETATM    3  S   UNL     1       6.421   0.385  19.105  1.00  0.00     0.009 SA
ENDROOT
BRANCH   3   4
HETATM    4  C   UNL     1       6.956   0.190  20.712  1.00  0.00     0.108 C 
HETATM    5  N   UNL     1       6.656  -0.721  21.617  1.00  0.00    -0.300 N 
ATOM      6  HN  UNL     1       6.303  -0.192  22.414  1.00  0.00     0.177 HD
BRANCH   5   7
HETATM    7  C   UNL     1       6.597  -1.835  21.949  1.00  0.00     0.047 C 
BRANCH   7   8
HETATM    8  N   UNL     1       6.336  -2.974  22.095  1.00  0.00    -0.347 N 
HETATM    9  C   UNL     1       5.189  -3.650  22.634  1.00  0.00     0.157 C 
ATOM     10  HN  UNL     1       7.069  -3.606  21.774  1.00  0.00     0.170 HD
ENDBRANCH   7   8
ENDBRANCH   5   7
BRANCH   4  11
HETATM   11  C   UNL     1       7.568   1.286  21.144  1.00  0.00     0.131 C 
HETATM   12  N   UNL     1       8.610   0.663  21.500  1.00  0.00    -0.316 N 
HETATM   13  C   UNL     1       9.699   0.349  22.232  1.00  0.00     0.324 C 
ATOM     14  HN  UNL     1       8.655  -0.057  20.778  1.00  0.00     0.170 HD
HETATM   15  O   UNL     1       9.864   0.878  23.291  1.00  0.00    -0.247 OA
HETATM   16  N   UNL     1      10.655  -0.661  21.803  1.00  0.00    -0.319 N 
HETATM   17  C   UNL     1      11.449  -1.168  22.771  1.00  0.00     0.093 C 
ATOM     18  HN  UNL     1      10.722  -0.966  20.832  1.00  0.00     0.170 HD
BRANCH  17  19
HETATM   19  C   UNL     1      12.881  -1.542  22.893  1.00  0.00     0.024 C 
HETATM   20  C   UNL     1      13.293  -0.792  23.834  1.00  0.00     0.041 C 
HETATM   21  C   UNL     1      12.709  -0.014  24.446  1.00  0.00    -0.047 C 
ENDBRANCH  17  19
ENDBRANCH   4  11
ENDBRANCH   3   4
TORSDOF 5
ENDMDL
MODEL 2
REMARK VINA RESULT:    -5.297      3.364      6.163
REMARK INTER + INTRA:          -6.862
REMARK INTER:                  -6.272
REMARK INTRA:                  -0.589
REMARK UNBOUND:                -0.016
REMARK  5 active torsions:
REMARK  status: ('A' for Active; 'I' for Inactive)
REMARK    1  A    between atoms: N_2  and  C_4 
REMARK    2  A    between atoms: C_4  and  N_5 
REMARK    3  A    between atoms: C_7  and  S_11 
REMARK    4  A    between atoms: C_7  and  C_8 
REMARK       I    between atoms: N_12  and  C_14 
REMARK       I    between atoms: C_14  and  N_16 
REMARK    5  A    between atoms: C_18  and  C_19 
ROOT
HETATM    1  N   UNL     1      11.155   3.062  23.699  1.00  0.00    -0.184 NA
HETATM    2  C   UNL     1      11.394   2.049  23.884  1.00  0.00     0.140 C 
HETATM    3  S   UNL     1      11.903   0.497  24.287  1.00  0.00     0.009 SA
ENDROOT
BRANCH   3   4
HETATM    4  C   UNL     1      10.384  -0.251  24.489  1.00  0.00     0.108 C 
HETATM    5  N   UNL     1       9.369   0.055  25.274  1.00  0.00    -0.300 N 
ATOM      6  HN  UNL     1       9.205  -0.785  25.828  1.00  0.00     0.177 HD
BRANCH   5   7
HETATM    7  C   UNL     1       8.570   0.816  25.643  1.00  0.00     0.047 C 
BRANCH   7   8
HETATM    8  N   UNL     1       7.984   1.729  26.100  1.00  0.00    -0.347 N 
HETATM    9  C   UNL     1       7.617   3.014  25.573  1.00  0.00     0.157 C 
ATOM     10  HN  UNL     1       7.675   1.578  27.060  1.00  0.00     0.170 HD
ENDBRANCH   7   8
ENDBRANCH   5   7
BRANCH   4  11
HETATM   11  C   UNL     1      10.373  -1.458  23.935  1.00  0.00     0.131 C 
HETATM   12  N   UNL     1       9.762  -1.065  22.898  1.00  0.00    -0.316 N 
HETATM   13  C   UNL     1       8.919  -1.104  21.847  1.00  0.00     0.324 C 
ATOM     14  HN  UNL     1      10.155  -0.130  22.790  1.00  0.00     0.170 HD
HETATM   15  O   UNL     1       8.132  -1.999  21.759  1.00  0.00    -0.247 OA
HETATM   16  N   UNL     1       8.891  -0.055  20.838  1.00  0.00    -0.319 N 
HETATM   17  C   UNL     1       7.769   0.012  20.088  1.00  0.00     0.093 C 
ATOM     18  HN  UNL     1       9.671   0.589  20.705  1.00  0.00     0.170 HD
BRANCH  17  19
HETATM   19  C   UNL     1       7.453   0.242  18.656  1.00  0.00     0.024 C 
HETATM   20  C   UNL     1       6.263  -0.197  18.552  1.00  0.00     0.041 C 
HETATM   21  C   UNL     1       5.591  -0.658  19.362  1.00  0.00    -0.047 C 
ENDBRANCH  17  19
ENDBRANCH   4  11
ENDBRANCH   3   4
TORSDOF 5
ENDMDL
MODEL 3
REMARK VINA RESULT:    -5.178     22.319     24.872
REMARK INTER + INTRA:          -6.707
REMARK INTER:                  -6.255
REMARK INTRA:                  -0.452
REMARK UNBOUND:                -0.016
REMARK  5 active torsions:
REMARK  status: ('A' for Active; 'I' for Inactive)
REMARK    1  A    between atoms: N_2  and  C_4 
REMARK    2  A    between atoms: C_4  and  N_5 
REMARK    3  A    between atoms: C_7  and  S_11 
REMARK    4  A    between atoms: C_7  and  C_8 
REMARK       I    between atoms: N_12  and  C_14 
REMARK       I    between atoms: C_14  and  N_16 
REMARK    5  A    between atoms: C_18  and  C_19 
ROOT
HETATM    1  N   UNL     1      10.057  19.182   5.087  1.00  0.00    -0.184 NA
HETATM    2  C   UNL     1       9.712  18.183   5.068  1.00  0.00     0.140 C 
HETATM    3  S   UNL     1       9.004  16.657   5.090  1.00  0.00     0.009 SA
ENDROOT
BRANCH   3   4
HETATM    4  C   UNL     1       9.661  16.026   3.649  1.00  0.00     0.108 C 
HETATM    5  N   UNL     1       9.375  16.279   2.386  1.00  0.00    -0.300 N 
ATOM      6  HN  UNL     1       9.131  15.374   1.986  1.00  0.00     0.177 HD
BRANCH   5   7
HETATM    7  C   UNL     1       9.265  17.034   1.507  1.00  0.00     0.047 C 
BRANCH   7   8
HETATM    8  N   UNL     1       9.358  17.645   0.505  1.00  0.00    -0.347 N 
HETATM    9  C   UNL     1       8.461  18.530  -0.184  1.00  0.00     0.157 C 
ATOM     10  HN  UNL     1      10.254  17.523   0.033  1.00  0.00     0.170 HD
ENDBRANCH   7   8
ENDBRANCH   5   7
BRANCH   4  11
HETATM   11  C   UNL     1      10.385  14.940   3.894  1.00  0.00     0.131 C 
HETATM   12  N   UNL     1       9.496  14.150   3.462  1.00  0.00    -0.316 N 
HETATM   13  C   UNL     1       8.740  13.037   3.374  1.00  0.00     0.324 C 
ATOM     14  HN  UNL     1       9.104  14.705   2.701  1.00  0.00     0.170 HD
HETATM   15  O   UNL     1       8.793  12.221   4.245  1.00  0.00    -0.247 OA
HETATM   16  N   UNL     1       7.808  12.819   2.276  1.00  0.00    -0.319 N 
HETATM   17  C   UNL     1       6.841  11.903   2.498  1.00  0.00     0.093 C 
ATOM     18  HN  UNL     1       7.882  13.326   1.394  1.00  0.00     0.170 HD
BRANCH  17  19
HETATM   19  C   UNL     1       6.195  10.818   1.716  1.00  0.00     0.024 C 
HETATM   20  C   UNL     1       5.801  10.012   2.617  1.00  0.00     0.041 C 
HETATM   21  C   UNL     1       5.912  10.094   3.758  1.00  0.00    -0.047 C 
ENDBRANCH  17  19
ENDBRANCH   4  11
ENDBRANCH   3   4
TORSDOF 5
ENDMDL
MODEL 4
REMARK VINA RESULT:    -5.006      4.069      5.312
REMARK INTER + INTRA:          -6.486
REMARK INTER:                  -6.022
REMARK INTRA:                  -0.464
REMARK UNBOUND:                -0.016
REMARK  5 active torsions:
REMARK  status: ('A' for Active; 'I' for Inactive)
REMARK    1  A    between atoms: N_2  and  C_4 
REMARK    2  A    between atoms: C_4  and  N_5 
REMARK    3  A    between atoms: C_7  and  S_11 
REMARK    4  A    between atoms: C_7  and  C_8 
REMARK       I    between atoms: N_12  and  C_14 
REMARK       I    between atoms: C_14  and  N_16 
REMARK    5  A    between atoms: C_18  and  C_19 
ROOT
HETATM    1  N   UNL     1       6.001  -6.203  26.928  1.00  0.00    -0.184 NA
HETATM    2  C   UNL     1       6.732  -5.674  26.376  1.00  0.00     0.140 C 
HETATM    3  S   UNL     1       7.999  -4.978  25.515  1.00  0.00     0.009 SA
ENDROOT
BRANCH   3   4
HETATM    4  C   UNL     1       7.114  -4.259  24.249  1.00  0.00     0.108 C 
HETATM    5  N   UNL     1       5.843  -3.912  24.173  1.00  0.00    -0.300 N 
ATOM      6  HN  UNL     1       5.484  -4.412  23.360  1.00  0.00     0.177 HD
BRANCH   5   7
HETATM    7  C   UNL     1       4.933  -3.314  24.581  1.00  0.00     0.047 C 
BRANCH   7   8
HETATM    8  N   UNL     1       4.209  -2.540  25.095  1.00  0.00    -0.347 N 
HETATM    9  C   UNL     1       4.196  -1.933  26.396  1.00  0.00     0.157 C 
ATOM     10  HN  UNL     1       3.438  -2.241  24.497  1.00  0.00     0.170 HD
ENDBRANCH   7   8
ENDBRANCH   5   7
BRANCH   4  11
HETATM   11  C   UNL     1       7.792  -4.310  23.108  1.00  0.00     0.131 C 
HETATM   12  N   UNL     1       8.586  -3.384  23.445  1.00  0.00    -0.316 N 
HETATM   13  C   UNL     1       9.390  -2.310  23.315  1.00  0.00     0.324 C 
ATOM     14  HN  UNL     1       8.673  -3.565  24.445  1.00  0.00     0.170 HD
HETATM   15  O   UNL     1       9.389  -1.697  22.290  1.00  0.00    -0.247 OA
HETATM   16  N   UNL     1      10.223  -1.830  24.409  1.00  0.00    -0.319 N 
HETATM   17  C   UNL     1      10.654  -0.554  24.304  1.00  0.00     0.093 C 
ATOM     18  HN  UNL     1      10.466  -2.420  25.204  1.00  0.00     0.170 HD
BRANCH  17  19
HETATM   19  C   UNL     1      11.923   0.171  24.571  1.00  0.00     0.024 C 
HETATM   20  C   UNL     1      11.723   1.305  24.031  1.00  0.00     0.041 C 
HETATM   21  C   UNL     1      10.792   1.685  23.473  1.00  0.00    -0.047 C 
ENDBRANCH  17  19
ENDBRANCH   4  11
ENDBRANCH   3   4
TORSDOF 5
ENDMDL
MODEL 5
REMARK VINA RESULT:    -4.864     16.300     18.937
REMARK INTER + INTRA:          -6.302
REMARK INTER:                  -5.804
REMARK INTRA:                  -0.498
REMARK UNBOUND:                -0.016
REMARK  5 active torsions:
REMARK  status: ('A' for Active; 'I' for Inactive)
REMARK    1  A    between atoms: N_2  and  C_4 
REMARK    2  A    between atoms: C_4  and  N_5 
REMARK    3  A    between atoms: C_7  and  S_11 
REMARK    4  A    between atoms: C_7  and  C_8 
REMARK       I    between atoms: N_12  and  C_14 
REMARK       I    between atoms: C_14  and  N_16 
REMARK    5  A    between atoms: C_18  and  C_19 
ROOT
HETATM    1  N   UNL     1      27.656   2.683  13.521  1.00  0.00    -0.184 NA
HETATM    2  C   UNL     1      27.456   1.711  13.155  1.00  0.00     0.140 C 
HETATM    3  S   UNL     1      27.224   0.104  12.717  1.00  0.00     0.009 SA
ENDROOT
BRANCH   3   4
HETATM    4  C   UNL     1      25.606   0.191  12.187  1.00  0.00     0.108 C 
HETATM    5  N   UNL     1      24.808   1.227  12.019  1.00  0.00    -0.300 N 
ATOM      6  HN  UNL     1      23.995   1.029  12.603  1.00  0.00     0.177 HD
BRANCH   5   7
HETATM    7  C   UNL     1      24.579   2.257  11.529  1.00  0.00     0.047 C 
BRANCH   7   8
HETATM    8  N   UNL     1      24.457   3.399  11.268  1.00  0.00    -0.347 N 
HETATM    9  C   UNL     1      24.317   4.105  10.025  1.00  0.00     0.157 C 
ATOM     10  HN  UNL     1      24.449   4.008  12.087  1.00  0.00     0.170 HD
ENDBRANCH   7   8
ENDBRANCH   5   7
BRANCH   4  11
HETATM   11  C   UNL     1      25.037  -1.009  12.203  1.00  0.00     0.131 C 
HETATM   12  N   UNL     1      24.635  -0.893  13.397  1.00  0.00    -0.316 N 
HETATM   13  C   UNL     1      24.312  -1.257  14.655  1.00  0.00     0.324 C 
ATOM     14  HN  UNL     1      24.420   0.104  13.428  1.00  0.00     0.170 HD
HETATM   15  O   UNL     1      24.616  -2.344  15.047  1.00  0.00    -0.247 OA
HETATM   16  N   UNL     1      23.655  -0.344  15.580  1.00  0.00    -0.319 N 
HETATM   17  C   UNL     1      23.752  -0.663  16.889  1.00  0.00     0.093 C 
ATOM     18  HN  UNL     1      23.154   0.484  15.259  1.00  0.00     0.170 HD
BRANCH  17  19
HETATM   19  C   UNL     1      22.841  -0.649  18.062  1.00  0.00     0.024 C 
HETATM   20  C   UNL     1      23.334  -1.546  18.817  1.00  0.00     0.041 C 
HETATM   21  C   UNL     1      24.257  -2.209  18.643  1.00  0.00    -0.047 C 
ENDBRANCH  17  19
ENDBRANCH   4  11
ENDBRANCH   3   4
TORSDOF 5
ENDMDL
MODEL 6
REMARK VINA RESULT:    -4.787      3.294      5.934
REMARK INTER + INTRA:          -6.203
REMARK INTER:                  -5.771
REMARK INTRA:                  -0.432
REMARK UNBOUND:                -0.016
REMARK  5 active torsions:
REMARK  status: ('A' for Active; 'I' for Inactive)
REMARK    1  A    between atoms: N_2  and  C_4 
REMARK    2  A    between atoms: C_4  and  N_5 
REMARK    3  A    between atoms: C_7  and  S_11 
REMARK    4  A    between atoms: C_7  and  C_8 
REMARK       I    between atoms: N_12  and  C_14 
REMARK       I    between atoms: C_14  and  N_16 
REMARK    5  A    between atoms: C_18  and  C_19 
ROOT
HETATM    1  N   UNL     1      10.935   3.180  23.631  1.00  0.00    -0.184 NA
HETATM    2  C   UNL     1      10.846   2.150  23.406  1.00  0.00     0.140 C 
HETATM    3  S   UNL     1      10.880   0.499  23.085  1.00  0.00     0.009 SA
ENDROOT
BRANCH   3   4
HETATM    4  C   UNL     1       9.428   0.037  23.851  1.00  0.00     0.108 C 
HETATM    5  N   UNL     1       8.228   0.584  23.827  1.00  0.00    -0.300 N 
ATOM      6  HN  UNL     1       8.005   0.767  24.805  1.00  0.00     0.177 HD
BRANCH   5   7
HETATM    7  C   UNL     1       7.300   0.959  23.234  1.00  0.00     0.047 C 
BRANCH   7   8
HETATM    8  N   UNL     1       6.553   1.427  22.454  1.00  0.00    -0.347 N 
HETATM    9  C   UNL     1       5.690   2.575  22.498  1.00  0.00     0.157 C 
ATOM     10  HN  UNL     1       6.510   0.918  21.571  1.00  0.00     0.170 HD
ENDBRANCH   7   8
ENDBRANCH   5   7
BRANCH   4  11
HETATM   11  C   UNL     1       9.659  -0.866  24.797  1.00  0.00     0.131 C 
HETATM   12  N   UNL     1       9.111  -1.804  24.148  1.00  0.00    -0.316 N 
HETATM   13  C   UNL     1       8.401  -2.929  23.923  1.00  0.00     0.324 C 
ATOM     14  HN  UNL     1       9.368  -1.549  23.194  1.00  0.00     0.170 HD
HETATM   15  O   UNL     1       7.773  -3.413  24.816  1.00  0.00    -0.247 OA
HETATM   16  N   UNL     1       8.325  -3.545  22.606  1.00  0.00    -0.319 N 
HETATM   17  C   UNL     1       7.293  -4.395  22.414  1.00  0.00     0.093 C 
ATOM     18  HN  UNL     1       9.008  -3.347  21.876  1.00  0.00     0.170 HD
BRANCH  17  19
HETATM   19  C   UNL     1       7.102  -5.711  21.753  1.00  0.00     0.024 C 
HETATM   20  C   UNL     1       5.932  -6.048  22.121  1.00  0.00     0.041 C 
HETATM   21  C   UNL     1       5.196  -5.480  22.797  1.00  0.00    -0.047 C 
ENDBRANCH  17  19
ENDBRANCH   4  11
ENDBRANCH   3   4
TORSDOF 5
ENDMDL
MODEL 7
REMARK VINA RESULT:    -4.778     19.607     22.128
REMARK INTER + INTRA:          -6.191
REMARK INTER:                  -5.701
REMARK INTRA:                  -0.489
REMARK UNBOUND:                -0.016
REMARK  5 active torsions:
REMARK  status: ('A' for Active; 'I' for Inactive)
REMARK    1  A    between atoms: N_2  and  C_4 
REMARK    2  A    between atoms: C_4  and  N_5 
REMARK    3  A    between atoms: C_7  and  S_11 
REMARK    4  A    between atoms: C_7  and  C_8 
REMARK       I    between atoms: N_12  and  C_14 
REMARK       I    between atoms: C_14  and  N_16 
REMARK    5  A    between atoms: C_18  and  C_19 
ROOT
HETATM    1  N   UNL     1       3.750  11.407   5.857  1.00  0.00    -0.184 NA
HETATM    2  C   UNL     1       3.749  11.163   4.828  1.00  0.00     0.140 C 
HETATM    3  S   UNL     1       3.748  10.952   3.159  1.00  0.00     0.009 SA
ENDROOT
BRANCH   3   4
HETATM    4  C   UNL     1       4.876   9.679   3.040  1.00  0.00     0.108 C 
HETATM    5  N   UNL     1       5.389   8.891   3.965  1.00  0.00    -0.300 N 
ATOM      6  HN  UNL     1       6.398   9.016   3.884  1.00  0.00     0.177 HD
BRANCH   5   7
HETATM    7  C   UNL     1       5.252   8.123   4.828  1.00  0.00     0.047 C 
BRANCH   7   8
HETATM    8  N   UNL     1       4.863   7.466   5.725  1.00  0.00    -0.347 N 
HETATM    9  C   UNL     1       3.740   7.592   6.611  1.00  0.00     0.157 C 
ATOM     10  HN  UNL     1       5.439   6.644   5.909  1.00  0.00     0.170 HD
ENDBRANCH   7   8
ENDBRANCH   5   7
BRANCH   4  11
HETATM   11  C   UNL     1       5.482   9.692   1.858  1.00  0.00     0.131 C 
HETATM   12  N   UNL     1       6.286  10.611   2.190  1.00  0.00    -0.316 N 
HETATM   13  C   UNL     1       7.069  11.702   2.063  1.00  0.00     0.324 C 
ATOM     14  HN  UNL     1       6.437  10.384   3.173  1.00  0.00     0.170 HD
HETATM   15  O   UNL     1       6.997  12.362   1.070  1.00  0.00    -0.247 OA
HETATM   16  N   UNL     1       7.963  12.140   3.125  1.00  0.00    -0.319 N 
HETATM   17  C   UNL     1       8.373  13.425   3.055  1.00  0.00     0.093 C 
ATOM     18  HN  UNL     1       8.261  11.516   3.874  1.00  0.00     0.170 HD
BRANCH  17  19
HETATM   19  C   UNL     1       9.648  14.154   3.278  1.00  0.00     0.024 C 
HETATM   20  C   UNL     1       9.660  15.005   2.333  1.00  0.00     0.041 C 
HETATM   21  C   UNL     1       8.880  15.175   1.506  1.00  0.00    -0.047 C 
ENDBRANCH  17  19
ENDBRANCH   4  11
ENDBRANCH   3   4
TORSDOF 5
ENDMDL
MODEL 8
REMARK VINA RESULT:    -4.711      2.944      6.071
REMARK INTER + INTRA:          -6.104
REMARK INTER:                  -5.577
REMARK INTRA:                  -0.527
REMARK UNBOUND:                -0.016
REMARK  5 active torsions:
REMARK  status: ('A' for Active; 'I' for Inactive)
REMARK    1  A    between atoms: N_2  and  C_4 
REMARK    2  A    between atoms: C_4  and  N_5 
REMARK    3  A    between atoms: C_7  and  S_11 
REMARK    4  A    between atoms: C_7  and  C_8 
REMARK       I    between atoms: N_12  and  C_14 
REMARK       I    between atoms: C_14  and  N_16 
REMARK    5  A    between atoms: C_18  and  C_19 
ROOT
HETATM    1  N   UNL     1      10.398   5.465  23.878  1.00  0.00    -0.184 NA
HETATM    2  C   UNL     1       9.911   4.543  24.055  1.00  0.00     0.140 C 
HETATM    3  S   UNL     1       8.982   3.168  24.329  1.00  0.00     0.009 SA
ENDROOT
BRANCH   3   4
HETATM    4  C   UNL     1       9.810   2.068  23.324  1.00  0.00     0.108 C 
HETATM    5  N   UNL     1      10.995   1.503  23.456  1.00  0.00    -0.300 N 
ATOM      6  HN  UNL     1      11.503   1.759  22.609  1.00  0.00     0.177 HD
BRANCH   5   7
HETATM    7  C   UNL     1      11.743   0.854  24.067  1.00  0.00     0.047 C 
BRANCH   7   8
HETATM    8  N   UNL     1      12.363  -0.013  24.566  1.00  0.00    -0.347 N 
HETATM    9  C   UNL     1      13.492  -0.785  24.125  1.00  0.00     0.157 C 
ATOM     10  HN  UNL     1      12.034  -0.268  25.498  1.00  0.00     0.170 HD
ENDBRANCH   7   8
ENDBRANCH   5   7
BRANCH   4  11
HETATM   11  C   UNL     1       9.242   2.000  22.126  1.00  0.00     0.131 C 
HETATM   12  N   UNL     1       8.564   0.972  22.415  1.00  0.00    -0.316 N 
HETATM   13  C   UNL     1       7.942  -0.212  22.243  1.00  0.00     0.324 C 
ATOM     14  HN  UNL     1       8.358   1.152  23.398  1.00  0.00     0.170 HD
HETATM   15  O   UNL     1       8.130  -0.832  21.240  1.00  0.00    -0.247 OA
HETATM   16  N   UNL     1       7.090  -0.795  23.270  1.00  0.00    -0.319 N 
HETATM   17  C   UNL     1       6.863  -2.122  23.162  1.00  0.00     0.093 C 
ATOM     18  HN  UNL     1       6.690  -0.236  24.023  1.00  0.00     0.170 HD
BRANCH  17  19
HETATM   19  C   UNL     1       5.695  -3.024  23.333  1.00  0.00     0.024 C 
HETATM   20  C   UNL     1       6.071  -4.091  22.751  1.00  0.00     0.041 C 
HETATM   21  C   UNL     1       7.067  -4.312  22.221  1.00  0.00    -0.047 C 
ENDBRANCH  17  19
ENDBRANCH   4  11
ENDBRANCH   3   4
TORSDOF 5
ENDMDL
MODEL 9
REMARK VINA RESULT:    -4.704      2.846      5.842
REMARK INTER + INTRA:          -6.095
REMARK INTER:                  -5.479
REMARK INTRA:                  -0.616
REMARK UNBOUND:                -0.016
REMARK  5 active torsions:
REMARK  status: ('A' for Active; 'I' for Inactive)
REMARK    1  A    between atoms: N_2  and  C_4 
REMARK    2  A    between atoms: C_4  and  N_5 
REMARK    3  A    between atoms: C_7  and  S_11 
REMARK    4  A    between atoms: C_7  and  C_8 
REMARK       I    between atoms: N_12  and  C_14 
REMARK       I    between atoms: C_14  and  N_16 
REMARK    5  A    between atoms: C_18  and  C_19 
ROOT
HETATM    1  N   UNL     1       6.917   1.168  21.949  1.00  0.00    -0.184 NA
HETATM    2  C   UNL     1       7.772   0.569  21.777  1.00  0.00     0.140 C 
HETATM    3  S   UNL     1       9.182  -0.259  21.384  1.00  0.00     0.009 SA
ENDROOT
BRANCH   3   4
HETATM    4  C   UNL     1       9.675  -0.726  22.947  1.00  0.00     0.108 C 
HETATM    5  N   UNL     1       9.818  -0.022  24.053  1.00  0.00    -0.300 N 
ATOM      6  HN  UNL     1      10.786  -0.171  24.336  1.00  0.00     0.177 HD
BRANCH   5   7
HETATM    7  C   UNL     1       9.377   0.686  24.864  1.00  0.00     0.047 C 
BRANCH   7   8
HETATM    8  N   UNL     1       8.690   1.342  25.561  1.00  0.00    -0.347 N 
HETATM    9  C   UNL     1       7.330   1.200  26.001  1.00  0.00     0.157 C 
ATOM     10  HN  UNL     1       9.152   2.176  25.923  1.00  0.00     0.170 HD
ENDBRANCH   7   8
ENDBRANCH   5   7
BRANCH   4  11
HETATM   11  C   UNL     1      10.226  -1.935  22.929  1.00  0.00     0.131 C 
HETATM   12  N   UNL     1       9.111  -2.532  22.952  1.00  0.00    -0.316 N 
HETATM   13  C   UNL     1       8.200  -3.481  23.250  1.00  0.00     0.324 C 
ATOM     14  HN  UNL     1       8.544  -1.894  22.394  1.00  0.00     0.170 HD
HETATM   15  O   UNL     1       8.466  -4.314  24.064  1.00  0.00    -0.247 OA
HETATM   16  N   UNL     1       6.872  -3.493  22.653  1.00  0.00    -0.319 N 
HETATM   17  C   UNL     1       5.939  -4.216  23.310  1.00  0.00     0.093 C 
ATOM     18  HN  UNL     1       6.660  -2.987  21.794  1.00  0.00     0.170 HD
BRANCH  17  19
HETATM   19  C   UNL     1       4.840  -5.141  22.930  1.00  0.00     0.024 C 
HETATM   20  C   UNL     1       4.744  -5.902  23.944  1.00  0.00     0.041 C 
HETATM   21  C   UNL     1       5.352  -5.886  24.919  1.00  0.00    -0.047 C 
ENDBRANCH  17  19
ENDBRANCH   4  11
ENDBRANCH   3   4
TORSDOF 5
ENDMDL
