stable:False satoms:15 tatoms:24 sratio:0.625
  -OEChem-07092417383D

 24 23  0     0  0  0  0  0  0999 V2000
    7.1432   -4.8694   26.3587 H   0  0  0  0  0  0  0  0  0  0  0  0
    8.1631   -4.4359   26.1560 C   0  0  0  0  0  0  0  0  0  0  0  0
    8.8977   -5.2743   26.0568 H   0  0  0  0  0  0  0  0  0  0  0  0
    8.4624   -3.7701   27.0402 H   0  0  0  0  0  0  0  0  0  0  0  0
    8.0749   -3.6825   24.9356 N   0  0  0  0  0  0  0  0  0  0  0  0
    8.8262   -2.9619   24.3861 C   0  0  0  0  0  0  0  0  0  0  0  0
    9.3414   -2.1044   23.7924 N   0  0  0  0  0  0  0  0  0  0  0  0
   10.4317   -1.4644   23.4183 C   0  0  0  0  0  0  0  0  0  0  0  0
   10.3784   -0.1366   23.4128 C   0  0  0  0  0  0  0  0  0  0  0  0
   10.8877    0.5812   24.0635 H   0  0  0  0  0  0  0  0  0  0  0  0
   13.7070   -0.2608   23.5570 N   0  0  0  0  0  0  0  0  0  0  0  0
   12.9388   -0.8872   23.1873 C   0  0  0  0  0  0  0  0  0  0  0  0
   11.8324   -2.0188   22.6192 S   0  0  0  0  0  0  0  0  0  0  0  0
    9.5566   -0.0935   22.4513 N   0  0  0  0  0  0  0  0  0  0  0  0
    8.9561    0.3602   21.3322 C   0  0  0  0  0  0  0  0  0  0  0  0
    9.4711    1.2364   20.7037 O   0  0  0  0  0  0  0  0  0  0  0  0
    7.7234   -0.2253   20.8245 N   0  0  0  0  0  0  0  0  0  0  0  0
    7.4460    0.0210   19.5260 C   0  3  0  0  0  0  0  0  0  0  0  0
    8.2892   -0.0493   18.8939 H   0  0  0  0  0  0  0  0  0  0  0  0
    6.1814    0.3191   17.7034 H   0  0  0  0  0  0  0  0  0  0  0  0
    6.2337    0.3596   18.7367 C   0  0  0  0  0  0  0  0  0  0  0  0
    5.3853    0.6645   19.6342 C   0  0  0  0  0  0  0  0  0  0  0  0
    5.5154    0.6766   20.7755 C   0  0  0  0  0  2  0  0  0  0  0  0
    5.7411    0.7257   21.7315 H   0  0  0  0  0  0  0  0  0  0  0  0
 20 21  1  0  0  0  0
 18 21  1  0  0  0  0
 21 22  2  0  0  0  0
 18 19  1  0  0  0  0
 17 18  1  0  0  0  0
 22 23  1  0  0  0  0
 15 16  2  0  0  0  0
 23 24  1  0  0  0  0
 15 17  1  0  0  0  0
 14 15  1  0  0  0  0
  9 14  1  0  0  0  0
 12 13  1  0  0  0  0
  8 13  1  0  0  0  0
 11 12  3  0  0  0  0
  8  9  2  3  0  0  0
  9 10  1  0  0  0  0
  7  8  1  0  0  0  0
  6  7  2  0  0  0  0
  5  6  1  0  0  0  0
  2  5  1  0  0  0  0
  2  3  1  0  0  0  0
  1  2  1  0  0  0  0
  2  4  1  0  0  0  0
M  CHG  1  18   1
M  END
> <Shapegauss>
-194.848160

$$$$
