stable:False satoms:9 tatoms:24 sratio:0.375
  -OEChem-07092417463D

 24 25  0     1  0  0  0  0  0999 V2000
    6.6574   -4.8249   26.4302 C   0  0  0  0  0  0  0  0  0  0  0  0
    8.1756   -4.3135   26.1175 S   0  0  0  0  0  0  0  0  0  0  0  0
    9.0521   -5.4759   26.0199 O   0  0  0  0  0  0  0  0  0  0  0  0
    8.6153   -3.4559   27.1790 O   0  0  0  0  0  0  0  0  0  0  0  0
    8.0883   -3.5370   24.7288 N   0  0  0  0  0  0  0  0  0  0  0  0
    8.9635   -2.8626   24.1530 C   0  0  0  0  0  0  0  0  0  0  0  0
    9.4430   -2.0289   23.5555 C   0  0  0  0  0  0  0  0  0  0  0  0
   10.3751   -1.1790   23.2107 C   0  0  1  0  0  0  0  0  0  0  0  0
   11.0187   -0.0201   24.2669 C   0  0  0  0  0  0  0  0  0  0  0  0
   12.0717    0.2697   24.2216 C   0  0  0  0  0  0  0  0  0  0  0  0
   13.1266   -0.1829   23.4254 C   0  0  0  0  0  0  0  0  0  0  0  0
   12.7590   -1.2270   22.6771 C   0  0  0  0  0  0  0  0  0  0  0  0
   11.7102   -1.6943   22.5574 C   0  0  0  0  0  0  0  0  0  0  0  0
    9.7128   -0.5343   22.3501 C   0  0  0  0  0  0  0  0  0  0  0  0
    9.0356    0.0703   21.4081 C   0  0  0  0  0  0  0  0  0  0  0  0
    9.5237    1.0119   21.0023 O   0  0  0  0  0  0  0  0  0  0  0  0
    7.8747   -0.5821   21.1417 N   0  0  0  0  0  0  0  0  0  0  0  0
    7.2569   -0.1101   20.1849 C   0  0  0  0  0  0  0  0  0  0  0  0
    7.2735    0.0045   18.9111 C   0  0  0  0  0  0  0  0  0  0  0  0
    6.6913    0.3851   17.7821 N   0  0  0  0  0  0  0  0  0  0  0  0
    5.6616    0.8486   18.2855 C   0  0  0  0  0  0  0  0  0  0  0  0
    5.2524    0.9415   19.4458 C   0  0  0  0  0  0  0  0  0  0  0  0
    5.7733    0.5697   20.6195 C   0  0  0  0  0  0  0  0  0  0  0  0
    5.4718    0.6371   21.6225 C   0  0  0  0  0  0  0  0  0  0  0  0
 20 21  2  0  0  0  0
 19 20  1  0  0  0  0
 21 22  1  0  0  0  0
 18 19  2  0  0  0  0
 22 23  2  0  0  0  0
 18 23  1  0  0  0  0
 17 18  1  0  0  0  0
 23 24  1  0  0  0  0
 15 16  2  0  0  0  0
 15 17  1  0  0  0  0
 14 15  1  0  0  0  0
  8 14  1  0  0  0  0
 12 13  1  0  0  0  0
  8 13  1  0  0  0  0
 11 12  2  0  0  0  0
  7  8  1  0  0  0  0
  8  9  1  0  0  0  0
 10 11  1  0  0  0  0
  6  7  3  0  0  0  0
  5  6  1  0  0  0  0
  9 10  2  0  0  0  0
  2  5  1  0  0  0  0
  2  3  2  0  0  0  0
  1  2  1  0  0  0  0
  2  4  2  0  0  0  0
M  END
> <Shapegauss>
-288.097534

$$$$
