stable:False satoms:9 tatoms:24 sratio:0.375
  -OEChem-08062415083D

 43 44  0     1  0  0  0  0  0999 V2000
    6.4265   -5.1142   26.3306 C   0  0  0  0  0  0  0  0  0  0  0  0
    7.9456   -4.5285   26.2145 S   0  0  0  0  0  0  0  0  0  0  0  0
    8.8819   -5.6476   26.2155 O   0  0  0  0  0  0  0  0  0  0  0  0
    8.2089   -3.6682   27.3307 O   0  0  0  0  0  0  0  0  0  0  0  0
    7.9941   -3.7353   24.8333 N   0  0  0  0  0  0  0  0  0  0  0  0
    8.9008   -3.0124   24.3776 C   0  0  0  0  0  0  0  0  0  0  0  0
    9.4103   -2.1483   23.8526 C   0  0  0  0  0  0  0  0  0  0  0  0
   10.3364   -1.2510   23.6348 C   0  0  1  0  0  0  0  0  0  0  0  0
   10.7881   -0.0803   24.7742 C   0  0  0  0  0  0  0  0  0  0  0  0
   11.8236    0.2585   24.8632 C   0  0  0  0  0  0  0  0  0  0  0  0
   12.9894   -0.1325   24.2002 C   0  0  0  0  0  0  0  0  0  0  0  0
   12.7676   -1.1807   23.4019 C   0  0  0  0  0  0  0  0  0  0  0  0
   11.7652   -1.6939   23.1479 C   0  0  0  0  0  0  0  0  0  0  0  0
    9.7559   -0.6242   22.7048 C   0  0  0  0  0  0  0  0  0  0  0  0
    9.1726   -0.0369   21.6917 C   0  0  0  0  0  0  0  0  0  0  0  0
    9.6618    0.9324   21.3590 O   0  0  0  0  0  0  0  0  0  0  0  0
    8.0861   -0.7379   21.2764 N   0  0  0  0  0  0  0  0  0  0  0  0
    7.5699   -0.2800   20.2548 C   0  0  0  0  0  0  0  0  0  0  0  0
    7.7387   -0.1450   18.9942 C   0  0  0  0  0  0  0  0  0  0  0  0
    7.2835    0.2259   17.8052 N   0  0  0  0  0  0  0  0  0  0  0  0
    6.1784    0.6335   18.1809 C   0  0  0  0  0  0  0  0  0  0  0  0
    5.6246    0.6894   19.2821 C   0  0  0  0  0  0  0  0  0  0  0  0
    6.0131    0.3238   20.5078 C   0  0  0  0  0  0  0  0  0  0  0  0
    5.5868    0.3616   21.4661 C   0  0  0  0  0  0  0  0  0  0  0  0
    6.3211   -5.6780   27.2693 H   0  0  0  0  0  0  0  0  0  0  0  0
    5.7102   -4.2794   26.3221 H   0  0  0  0  0  0  0  0  0  0  0  0
    6.2241   -5.7798   25.4786 H   0  0  0  0  0  0  0  0  0  0  0  0
    7.1908   -3.1404   24.8595 H   0  0  0  0  0  0  0  0  0  0  0  0
   10.0367    0.3401   25.4262 H   0  0  0  0  0  0  0  0  0  0  0  0
   11.9724    1.0368   25.5970 H   0  0  0  0  0  0  0  0  0  0  0  0
   13.9479    0.3509   24.3180 H   0  0  0  0  0  0  0  0  0  0  0  0
   13.6427   -1.6042   22.9314 H   0  0  0  0  0  0  0  0  0  0  0  0
   11.7088   -1.6828   22.0494 H   0  0  0  0  0  0  0  0  0  0  0  0
   11.8780   -2.7304   23.4988 H   0  0  0  0  0  0  0  0  0  0  0  0
   10.3903    0.2578   22.8764 H   0  0  0  0  0  0  0  0  0  0  0  0
    8.8394   -0.5394   23.3071 H   0  0  0  0  0  0  0  0  0  0  0  0
    7.7390   -1.5459   21.7525 H   0  0  0  0  0  0  0  0  0  0  0  0
    8.7375   -0.5108   18.8072 H   0  0  0  0  0  0  0  0  0  0  0  0
    5.5707    1.0220   17.3771 H   0  0  0  0  0  0  0  0  0  0  0  0
    4.6332    1.1167   19.2493 H   0  0  0  0  0  0  0  0  0  0  0  0
    5.0372   -0.5713   21.6605 H   0  0  0  0  0  0  0  0  0  0  0  0
    6.3819    0.4817   22.2166 H   0  0  0  0  0  0  0  0  0  0  0  0
    4.8943    1.2142   21.5258 H   0  0  0  0  0  0  0  0  0  0  0  0
 20 21  2  0  0  0  0
 19 20  1  0  0  0  0
 21 22  1  0  0  0  0
 18 19  2  0  0  0  0
 22 23  2  0  0  0  0
 18 23  1  0  0  0  0
 17 18  1  0  0  0  0
 23 24  1  0  0  0  0
 15 16  2  0  0  0  0
 15 17  1  0  0  0  0
 14 15  1  0  0  0  0
  8 14  1  0  0  0  0
 12 13  1  0  0  0  0
  8 13  1  0  0  0  0
 11 12  2  0  0  0  0
  7  8  1  0  0  0  0
  8  9  1  0  0  0  0
 10 11  1  0  0  0  0
  6  7  3  0  0  0  0
  5  6  1  0  0  0  0
  9 10  2  0  0  0  0
  2  5  1  0  0  0  0
  2  3  2  0  0  0  0
  1  2  1  0  0  0  0
  2  4  2  0  0  0  0
  1 25  1  0  0  0  0
  1 26  1  0  0  0  0
  1 27  1  0  0  0  0
  5 28  1  0  0  0  0
  9 29  1  0  0  0  0
 10 30  1  0  0  0  0
 11 31  1  0  0  0  0
 12 32  1  0  0  0  0
 13 33  1  0  0  0  0
 13 34  1  0  0  0  0
 14 35  1  0  0  0  0
 14 36  1  0  0  0  0
 17 37  1  0  0  0  0
 19 38  1  0  0  0  0
 21 39  1  0  0  0  0
 22 40  1  0  0  0  0
 24 41  1  0  0  0  0
 24 42  1  0  0  0  0
 24 43  1  0  0  0  0
M  END
> <Chemgauss4>
-12.764426

$$$$
