stable:False satoms:9 tatoms:24 sratio:0.375
  -OEChem-08062415083D

 43 44  0     1  0  0  0  0  0999 V2000
   -6.1401   -4.9683  -26.2810 C   0  0  0  0  0  0  0  0  0  0  0  0
   -7.6592   -4.3826  -26.1648 S   0  0  0  0  0  0  0  0  0  0  0  0
   -8.5955   -5.5017  -26.1658 O   0  0  0  0  0  0  0  0  0  0  0  0
   -7.9226   -3.5223  -27.2811 O   0  0  0  0  0  0  0  0  0  0  0  0
   -7.7078   -3.5894  -24.7836 N   0  0  0  0  0  0  0  0  0  0  0  0
   -8.6144   -2.8665  -24.3279 C   0  0  0  0  0  0  0  0  0  0  0  0
   -9.1240   -2.0024  -23.8029 C   0  0  0  0  0  0  0  0  0  0  0  0
  -10.0500   -1.1051  -23.5852 C   0  0  1  0  0  0  0  0  0  0  0  0
  -10.5017    0.0656  -24.7245 C   0  0  0  0  0  0  0  0  0  0  0  0
  -11.5372    0.4044  -24.8135 C   0  0  0  0  0  0  0  0  0  0  0  0
  -12.7030    0.0134  -24.1505 C   0  0  0  0  0  0  0  0  0  0  0  0
  -12.4812   -1.0348  -23.3522 C   0  0  0  0  0  0  0  0  0  0  0  0
  -11.4788   -1.5480  -23.0982 C   0  0  0  0  0  0  0  0  0  0  0  0
   -9.4695   -0.4783  -22.6551 C   0  0  0  0  0  0  0  0  0  0  0  0
   -8.8862    0.1090  -21.6420 C   0  0  0  0  0  0  0  0  0  0  0  0
   -9.3754    1.0783  -21.3093 O   0  0  0  0  0  0  0  0  0  0  0  0
   -7.7997   -0.5920  -21.2268 N   0  0  0  0  0  0  0  0  0  0  0  0
   -7.2835   -0.1341  -20.2051 C   0  0  0  0  0  0  0  0  0  0  0  0
   -7.4524    0.0009  -18.9445 C   0  0  0  0  0  0  0  0  0  0  0  0
   -6.9971    0.3718  -17.7555 N   0  0  0  0  0  0  0  0  0  0  0  0
   -5.8920    0.7795  -18.1312 C   0  0  0  0  0  0  0  0  0  0  0  0
   -5.3382    0.8353  -19.2324 C   0  0  0  0  0  0  0  0  0  0  0  0
   -5.7268    0.4697  -20.4581 C   0  0  0  0  0  0  0  0  0  0  0  0
   -5.3004    0.5075  -21.4164 C   0  0  0  0  0  0  0  0  0  0  0  0
   -6.0347   -5.5321  -27.2196 H   0  0  0  0  0  0  0  0  0  0  0  0
   -5.4238   -4.1335  -26.2724 H   0  0  0  0  0  0  0  0  0  0  0  0
   -5.9377   -5.6339  -25.4289 H   0  0  0  0  0  0  0  0  0  0  0  0
   -6.9044   -2.9945  -24.8098 H   0  0  0  0  0  0  0  0  0  0  0  0
   -9.7504    0.4860  -25.3765 H   0  0  0  0  0  0  0  0  0  0  0  0
  -11.6860    1.1827  -25.5473 H   0  0  0  0  0  0  0  0  0  0  0  0
  -13.6616    0.4968  -24.2683 H   0  0  0  0  0  0  0  0  0  0  0  0
  -13.3563   -1.4583  -22.8817 H   0  0  0  0  0  0  0  0  0  0  0  0
  -11.4225   -1.5369  -21.9997 H   0  0  0  0  0  0  0  0  0  0  0  0
  -11.5917   -2.5845  -23.4491 H   0  0  0  0  0  0  0  0  0  0  0  0
  -10.1040    0.4037  -22.8267 H   0  0  0  0  0  0  0  0  0  0  0  0
   -8.5530   -0.3935  -23.2574 H   0  0  0  0  0  0  0  0  0  0  0  0
   -7.4526   -1.4000  -21.7028 H   0  0  0  0  0  0  0  0  0  0  0  0
   -8.4512   -0.3648  -18.7575 H   0  0  0  0  0  0  0  0  0  0  0  0
   -5.2843    1.1679  -17.3274 H   0  0  0  0  0  0  0  0  0  0  0  0
   -4.3469    1.2626  -19.1996 H   0  0  0  0  0  0  0  0  0  0  0  0
   -4.7508   -0.4254  -21.6108 H   0  0  0  0  0  0  0  0  0  0  0  0
   -6.0956    0.6276  -22.1669 H   0  0  0  0  0  0  0  0  0  0  0  0
   -4.6080    1.3601  -21.4761 H   0  0  0  0  0  0  0  0  0  0  0  0
 20 21  2  0  0  0  0
 19 20  1  0  0  0  0
 21 22  1  0  0  0  0
 18 19  2  0  0  0  0
 22 23  2  0  0  0  0
 18 23  1  0  0  0  0
 17 18  1  0  0  0  0
 23 24  1  0  0  0  0
 15 16  2  0  0  0  0
 15 17  1  0  0  0  0
 14 15  1  0  0  0  0
  8 14  1  0  0  0  0
 12 13  1  0  0  0  0
  8 13  1  0  0  0  0
 11 12  2  0  0  0  0
  7  8  1  0  0  0  0
  8  9  1  0  0  0  0
 10 11  1  0  0  0  0
  6  7  3  0  0  0  0
  5  6  1  0  0  0  0
  9 10  2  0  0  0  0
  2  5  1  0  0  0  0
  2  3  2  0  0  0  0
  1  2  1  0  0  0  0
  2  4  2  0  0  0  0
  1 25  1  0  0  0  0
  1 26  1  0  0  0  0
  1 27  1  0  0  0  0
  5 28  1  0  0  0  0
  9 29  1  0  0  0  0
 10 30  1  0  0  0  0
 11 31  1  0  0  0  0
 12 32  1  0  0  0  0
 13 33  1  0  0  0  0
 13 34  1  0  0  0  0
 14 35  1  0  0  0  0
 14 36  1  0  0  0  0
 17 37  1  0  0  0  0
 19 38  1  0  0  0  0
 21 39  1  0  0  0  0
 22 40  1  0  0  0  0
 24 41  1  0  0  0  0
 24 42  1  0  0  0  0
 24 43  1  0  0  0  0
M  END
> <Chemgauss4>
-12.573679

$$$$
