REMARK  6 active torsions:
REMARK  status: ('A' for Active; 'I' for Inactive)
REMARK    1  A    between atoms: S_2  and  N_5 
REMARK    2  A    between atoms: N_5  and  C_7 
REMARK    3  A    between atoms: C_8  and  C_9 
REMARK    4  A    between atoms: C_9  and  C_15 
REMARK    5  A    between atoms: C_15  and  C_16 
REMARK       I    between atoms: C_16  and  N_18 
REMARK    6  A    between atoms: N_18  and  C_20 
ROOT
HETATM    1  C   UNL     1      10.435  -1.134  23.213  1.00  0.00     0.076 C 
HETATM    2  C   UNL     1      11.117  -0.053  24.266  1.00  0.00     0.003 C 
HETATM    3  C   UNL     1      12.118   0.330  24.242  1.00  0.00    -0.002 C 
HETATM    4  C   UNL     1      13.218  -0.214  23.370  1.00  0.00    -0.001 C 
HETATM    5  C   UNL     1      12.787  -1.192  22.686  1.00  0.00    -0.002 C 
HETATM    6  C   UNL     1      11.729  -1.689  22.543  1.00  0.00     0.003 C 
ENDROOT
BRANCH   1   7
HETATM    7  C   UNL     1       9.461  -1.951  23.519  1.00  0.00     0.021 C 
HETATM    8  C   UNL     1       8.986  -2.898  24.154  1.00  0.00     0.098 C 
BRANCH   8   9
HETATM    9  N   UNL     1       8.081  -3.641  24.637  1.00  0.00    -0.296 N 
ATOM     10  HN  UNL     1       7.238  -3.818  24.090  1.00  0.00     0.177 HD
BRANCH   9  11
HETATM   11  S   UNL     1       8.225  -4.301  26.067  1.00  0.00     0.226 S 
HETATM   12  C   UNL     1       6.531  -4.908  26.491  1.00  0.00     0.186 C 
HETATM   13  O   UNL     1       9.059  -5.510  26.046  1.00  0.00    -0.206 OA
HETATM   14  O   UNL     1       8.586  -3.372  27.116  1.00  0.00    -0.206 OA
ENDBRANCH   9  11
ENDBRANCH   8   9
ENDBRANCH   1   7
BRANCH   1  15
HETATM   15  C   UNL     1       9.737  -0.572  22.363  1.00  0.00    -0.061 C 
BRANCH  15  16
HETATM   16  C   UNL     1       9.059   0.087  21.403  1.00  0.00     0.290 C 
HETATM   17  O   UNL     1       9.513   1.067  21.039  1.00  0.00    -0.259 OA
HETATM   18  N   UNL     1       7.936  -0.554  21.069  1.00  0.00    -0.315 N 
ATOM     19  HN  UNL     1       7.696  -1.425  21.542  1.00  0.00     0.170 HD
BRANCH  18  20
HETATM   20  C   UNL     1       7.188  -0.112  20.202  1.00  0.00     0.057 A 
HETATM   21  C   UNL     1       7.182  -0.010  18.882  1.00  0.00     0.117 A 
HETATM   22  N   UNL     1       6.701   0.283  17.797  1.00  0.00    -0.373 N 
HETATM   23  C   UNL     1       5.651   0.835  18.246  1.00  0.00     0.088 A 
ATOM     24  HN  UNL     1       7.034   0.133  16.845  1.00  0.00     0.164 HD
HETATM   25  C   UNL     1       5.232   0.951  19.424  1.00  0.00     0.026 A 
HETATM   26  C   UNL     1       5.779   0.562  20.567  1.00  0.00    -0.033 A 
HETATM   27  C   UNL     1       5.271   0.705  21.953  1.00  0.00     0.050 C 
ENDBRANCH  18  20
ENDBRANCH  15  16
ENDBRANCH   1  15
TORSDOF 6
