stable:False satoms:8 tatoms:24 sratio:0.3333333333333333
  -OEChem-07092417453D

 24 25  0     1  0  0  0  0  0999 V2000
    6.5642   -4.8491   26.4130 C   0  0  0  0  0  0  0  0  0  0  0  0
    8.2203   -4.2738   26.0908 S   0  0  0  0  0  0  0  0  0  0  0  0
    9.0302   -5.4471   26.0464 O   0  0  0  0  0  0  0  0  0  0  0  0
    8.5978   -3.3755   27.1234 O   0  0  0  0  0  0  0  0  0  0  0  0
    8.0999   -3.5861   24.6424 N   0  0  0  0  0  0  0  0  0  0  0  0
    8.9425   -2.8656   24.1499 C   0  0  0  0  0  0  0  0  0  0  0  0
    9.4144   -1.9939   23.5683 C   0  0  0  0  0  0  0  0  0  0  0  0
   10.3379   -1.1276   23.2922 C   0  0  1  0  0  0  0  0  0  0  0  0
   11.0607   -0.0390   24.2596 C   0  0  0  0  0  0  0  0  0  0  0  0
   12.1283    0.3032   24.2357 C   0  0  0  0  0  0  0  0  0  0  0  0
   13.1401   -0.1290   23.4581 C   0  0  0  0  0  0  0  0  0  0  0  0
   12.7672   -1.2511   22.6783 C   0  0  0  0  0  0  0  0  0  0  0  0
   11.8114   -1.6905   22.5777 C   0  0  0  0  0  0  0  0  0  0  0  0
    9.7178   -0.5683   22.3493 C   0  0  0  0  0  0  0  0  0  0  0  0
    9.0368    0.0173   21.3984 C   0  0  0  0  0  0  0  0  0  0  0  0
    9.5610    0.9483   20.9841 O   0  0  0  0  0  0  0  0  0  0  0  0
    7.8897   -0.5940   21.1449 N   0  0  0  0  0  0  0  0  0  0  0  0
    7.1755   -0.1036   20.2205 C   0  0  0  0  0  0  0  0  0  0  0  0
    7.1998    0.0120   18.9243 C   0  0  0  0  0  0  0  0  0  0  0  0
    6.7582    0.3303   17.7961 N   0  0  0  0  0  0  0  0  0  0  0  0
    5.6709    0.8758   18.2605 C   0  0  0  0  0  0  0  0  0  0  0  0
    5.2552    0.9383   19.4617 C   0  0  0  0  0  0  0  0  0  0  0  0
    5.7777    0.5513   20.5944 C   0  0  0  0  0  0  0  0  0  0  0  0
    5.4266    0.6278   21.6267 C   0  0  0  0  0  0  0  0  0  0  0  0
 20 21  2  0  0  0  0
 19 20  1  0  0  0  0
 21 22  1  0  0  0  0
 18 19  2  0  0  0  0
 22 23  2  0  0  0  0
 18 23  1  0  0  0  0
 17 18  1  0  0  0  0
 23 24  1  0  0  0  0
 15 16  2  0  0  0  0
 15 17  1  0  0  0  0
 14 15  1  0  0  0  0
  8 14  1  0  0  0  0
 12 13  1  0  0  0  0
  8 13  1  0  0  0  0
 11 12  2  0  0  0  0
  7  8  1  0  0  0  0
  8  9  1  0  0  0  0
 10 11  1  0  0  0  0
  6  7  3  0  0  0  0
  5  6  1  0  0  0  0
  9 10  2  0  0  0  0
  2  5  1  0  0  0  0
  2  3  2  0  0  0  0
  1  2  1  0  0  0  0
  2  4  2  0  0  0  0
M  END
> <Shapegauss>
-287.693481

$$$$
