stable:False satoms:8 tatoms:24 sratio:0.3333333333333333
  -OEChem-08062414153D

 43 44  0     1  0  0  0  0  0999 V2000
   -6.3815   -5.1602  -26.0723 C   0  0  0  0  0  0  0  0  0  0  0  0
   -8.0248   -4.4785  -25.9615 S   0  0  0  0  0  0  0  0  0  0  0  0
   -8.9062   -5.5995  -25.9944 O   0  0  0  0  0  0  0  0  0  0  0  0
   -8.2198   -3.5850  -27.0475 O   0  0  0  0  0  0  0  0  0  0  0  0
   -8.0346   -3.7636  -24.5214 N   0  0  0  0  0  0  0  0  0  0  0  0
   -8.8829   -2.9818  -24.1463 C   0  0  0  0  0  0  0  0  0  0  0  0
   -9.3650   -2.0692  -23.6409 C   0  0  0  0  0  0  0  0  0  0  0  0
  -10.2587   -1.1423  -23.4928 C   0  0  1  0  0  0  0  0  0  0  0  0
  -10.7917   -0.0365  -24.5589 C   0  0  0  0  0  0  0  0  0  0  0  0
  -11.8311    0.3697  -24.6694 C   0  0  0  0  0  0  0  0  0  0  0  0
  -12.9532    0.0186  -24.0116 C   0  0  0  0  0  0  0  0  0  0  0  0
  -12.7467   -1.1043  -23.1733 C   0  0  0  0  0  0  0  0  0  0  0  0
  -11.8390   -1.5977  -22.9509 C   0  0  0  0  0  0  0  0  0  0  0  0
   -9.7213   -0.5981  -22.4921 C   0  0  0  0  0  0  0  0  0  0  0  0
   -9.1228   -0.0312  -21.4766 C   0  0  0  0  0  0  0  0  0  0  0  0
   -9.6331    0.9396  -21.1446 O   0  0  0  0  0  0  0  0  0  0  0  0
   -8.0545   -0.7039  -21.0765 N   0  0  0  0  0  0  0  0  0  0  0  0
   -7.4259   -0.2346  -20.0817 C   0  0  0  0  0  0  0  0  0  0  0  0
   -7.5969   -0.0857  -18.8000 C   0  0  0  0  0  0  0  0  0  0  0  0
   -7.2734    0.2334  -17.6326 N   0  0  0  0  0  0  0  0  0  0  0  0
   -6.1066    0.7008  -17.9724 C   0  0  0  0  0  0  0  0  0  0  0  0
   -5.5480    0.7084  -19.1158 C   0  0  0  0  0  0  0  0  0  0  0  0
   -5.9553    0.3256  -20.2962 C   0  0  0  0  0  0  0  0  0  0  0  0
   -5.4799    0.3553  -21.2800 C   0  0  0  0  0  0  0  0  0  0  0  0
   -6.2637   -5.6802  -27.0345 H   0  0  0  0  0  0  0  0  0  0  0  0
   -5.6424   -4.3485  -26.0015 H   0  0  0  0  0  0  0  0  0  0  0  0
   -6.2238   -5.8724  -25.2490 H   0  0  0  0  0  0  0  0  0  0  0  0
   -7.1679   -3.2683  -24.4617 H   0  0  0  0  0  0  0  0  0  0  0  0
  -10.0546    0.3546  -25.2445 H   0  0  0  0  0  0  0  0  0  0  0  0
  -11.9489    1.1512  -25.4055 H   0  0  0  0  0  0  0  0  0  0  0  0
  -13.8980    0.5322  -24.1117 H   0  0  0  0  0  0  0  0  0  0  0  0
  -13.6300   -1.5078  -22.7007 H   0  0  0  0  0  0  0  0  0  0  0  0
  -11.7755   -1.5979  -21.8527 H   0  0  0  0  0  0  0  0  0  0  0  0
  -11.9785   -2.6280  -23.3103 H   0  0  0  0  0  0  0  0  0  0  0  0
  -10.0439   -1.4319  -21.8512 H   0  0  0  0  0  0  0  0  0  0  0  0
  -10.4928    0.1859  -22.4899 H   0  0  0  0  0  0  0  0  0  0  0  0
   -7.7586   -1.5409  -21.5369 H   0  0  0  0  0  0  0  0  0  0  0  0
   -8.6048   -0.4486  -18.6634 H   0  0  0  0  0  0  0  0  0  0  0  0
   -5.5327    1.1440  -17.1720 H   0  0  0  0  0  0  0  0  0  0  0  0
   -4.5447    1.1081  -19.1088 H   0  0  0  0  0  0  0  0  0  0  0  0
   -4.9280   -0.5810  -21.4495 H   0  0  0  0  0  0  0  0  0  0  0  0
   -6.2506    0.4721  -22.0562 H   0  0  0  0  0  0  0  0  0  0  0  0
   -4.7827    1.2049  -21.3247 H   0  0  0  0  0  0  0  0  0  0  0  0
 20 21  2  0  0  0  0
 19 20  1  0  0  0  0
 21 22  1  0  0  0  0
 18 19  2  0  0  0  0
 22 23  2  0  0  0  0
 18 23  1  0  0  0  0
 17 18  1  0  0  0  0
 23 24  1  0  0  0  0
 15 16  2  0  0  0  0
 15 17  1  0  0  0  0
 14 15  1  0  0  0  0
  8 14  1  0  0  0  0
 12 13  1  0  0  0  0
  8 13  1  0  0  0  0
 11 12  2  0  0  0  0
  7  8  1  0  0  0  0
  8  9  1  0  0  0  0
 10 11  1  0  0  0  0
  6  7  3  0  0  0  0
  5  6  1  0  0  0  0
  9 10  2  0  0  0  0
  2  5  1  0  0  0  0
  2  3  2  0  0  0  0
  1  2  1  0  0  0  0
  2  4  2  0  0  0  0
  1 25  1  0  0  0  0
  1 26  1  0  0  0  0
  1 27  1  0  0  0  0
  5 28  1  0  0  0  0
  9 29  1  0  0  0  0
 10 30  1  0  0  0  0
 11 31  1  0  0  0  0
 12 32  1  0  0  0  0
 13 33  1  0  0  0  0
 13 34  1  0  0  0  0
 14 35  1  0  0  0  0
 14 36  1  0  0  0  0
 17 37  1  0  0  0  0
 19 38  1  0  0  0  0
 21 39  1  0  0  0  0
 22 40  1  0  0  0  0
 24 41  1  0  0  0  0
 24 42  1  0  0  0  0
 24 43  1  0  0  0  0
M  END
> <Chemgauss4>
-12.821791

$$$$
