stable:False satoms:21 tatoms:24 sratio:0.875
  -OEChem-07092417273D

 24 23  0     1  0  0  0  0  0999 V2000
   10.6456   -3.1122   22.4732 H   0  0  0  0  0  0  0  0  0  0  0  0
    9.7079   -2.6998   22.1231 C   0  5  0  0  0  0  0  0  0  0  0  0
    8.7205   -4.5799   24.3677 C   0  3  0  0  0  0  0  0  0  0  0  0
    7.6443   -2.7447   22.5184 H   0  0  0  0  0  0  0  0  0  0  0  0
    8.3808    2.0657   20.9011 C   0  0  0  0  0  0  0  0  0  0  0  0
    9.4089   -2.6656   24.9854 H   0  0  0  0  0  0  0  0  0  0  0  0
    9.6453   -0.4814   23.8025 O   0  0  0  0  0  0  0  0  0  0  0  0
    7.6879    4.4450   20.7656 H   0  0  0  0  0  0  0  0  0  0  0  0
    9.3041    2.6581   20.4158 O   0  0  0  0  0  0  0  0  0  0  0  0
   10.6405   -4.8495   24.3050 H   0  0  0  0  0  0  0  0  0  0  0  0
    9.7739   -5.2206   23.8912 N   0  0  0  0  0  0  0  0  0  0  0  0
    9.2270    1.3626   22.6200 H   0  0  0  0  0  0  0  0  0  0  0  0
    7.9271   -5.2238   24.7589 H   0  0  0  0  0  0  0  0  0  0  0  0
    9.6409   -2.5932   21.0494 H   0  0  0  0  0  0  0  0  0  0  0  0
    7.0461    2.4541   20.5252 N   0  0  0  0  0  0  0  0  0  0  0  0
    8.7495   -0.3452   21.6885 N   0  0  0  0  0  0  0  0  0  0  0  0
    7.6377   -2.8202   24.8728 H   0  0  0  0  0  0  0  0  0  0  0  0
    8.5923   -3.1209   24.4180 C   0  0  0  0  0  0  0  0  0  0  0  0
    6.0178    4.1636   19.9421 H   0  0  0  0  0  0  0  0  0  0  0  0
    8.6301   -2.4961   22.9471 C   0  0  1  0  0  0  0  0  0  0  0  0
    9.0971   -1.0121   22.8339 C   0  0  0  0  0  0  0  0  0  0  0  0
    6.9209    3.7397   20.4123 C   0  3  0  0  0  0  0  0  0  0  0  0
    8.6982    1.0234   21.8097 N   0  0  0  0  0  0  0  0  0  0  0  0
    9.8396   -5.2371   22.8698 H   0  0  0  0  0  0  0  0  0  0  0  0
 19 22  1  0  0  0  0
 15 22  1  0  0  0  0
  8 22  1  0  0  0  0
  5  9  2  0  0  0  0
  5 15  1  0  0  0  0
  5 23  1  0  0  0  0
  2 14  1  0  0  0  0
 16 23  1  0  0  0  0
 16 21  1  0  0  0  0
 12 23  1  0  0  0  0
  1  2  1  0  0  0  0
  2 20  1  0  0  0  0
  4 20  1  0  0  0  0
 20 21  1  0  0  0  0
  7 21  2  0  0  0  0
 11 24  1  0  0  0  0
 18 20  1  0  0  0  0
 10 11  1  0  0  0  0
  3 11  1  0  0  0  0
  3 18  1  0  0  0  0
  3 13  1  0  0  0  0
 17 18  1  0  0  0  0
  6 18  1  0  0  0  0
M  CHG  3   2  -1   3   1  22   1
M  END
> <Shapegauss>
-90.265991

$$$$
