REMARK  5 active torsions:
REMARK  status: ('A' for Active; 'I' for Inactive)
REMARK    1  A    between atoms: C_2  and  N_7 
REMARK    2  A    between atoms: C_2  and  C_13 
REMARK       I    between atoms: C_3  and  N_9 
REMARK       I    between atoms: C_3  and  N_17 
REMARK    3  A    between atoms: N_11  and  N_17 
REMARK       I    between atoms: N_11  and  C_15 
REMARK    4  A    between atoms: C_13  and  C_14 
REMARK    5  A    between atoms: C_14  and  C_15 
ROOT
HETATM    1  O   UNL     1       9.645  -0.481  23.802  1.00  0.00    -0.271 OA
HETATM    2  N   UNL     1       8.749  -0.345  21.689  1.00  0.00    -0.266 N 
ATOM      3  HN  UNL     1       8.544  -0.827  20.814  1.00  0.00     0.190 HD
HETATM    4  C   UNL     1       9.097  -1.012  22.834  1.00  0.00     0.239 C 
ENDROOT
BRANCH   2   5
HETATM    5  N   UNL     1       8.698   1.023  21.810  1.00  0.00    -0.249 N 
HETATM    6  C   UNL     1       8.381   2.066  20.901  1.00  0.00     0.338 C 
HETATM    7  O   UNL     1       9.304   2.658  20.416  1.00  0.00    -0.245 OA
HETATM    8  N   UNL     1       7.046   2.454  20.525  1.00  0.00    -0.328 N 
HETATM    9  C   UNL     1       6.921   3.740  20.412  1.00  0.00     0.123 C 
ATOM     10  HN  UNL     1       6.286   1.793  20.366  1.00  0.00     0.169 HD
HETATM   11  H   UNL     1       9.227   1.363  22.620  1.00  0.00     0.192 HD
ENDBRANCH   2   5
BRANCH   4  12
HETATM   12  C   UNL     1       8.630  -2.496  22.947  1.00  0.00     0.077 C 
HETATM   13  C   UNL     1       9.708  -2.700  22.123  1.00  0.00     0.020 C 
BRANCH  12  14
HETATM   14  C   UNL     1       8.592  -3.121  24.418  1.00  0.00     0.043 C 
BRANCH  14  15
HETATM   15  C   UNL     1       8.720  -4.580  24.368  1.00  0.00     0.267 C 
BRANCH  15  16
HETATM   16  N   UNL     1       9.774  -5.221  23.891  1.00  0.00     0.078 N 
HETATM   17  H   UNL     1      10.640  -4.849  24.305  1.00  0.00     0.312 HD
HETATM   18  H   UNL     1       9.840  -5.237  22.870  1.00  0.00     0.312 HD
ENDBRANCH  15  16
ENDBRANCH  14  15
ENDBRANCH  12  14
ENDBRANCH   4  12
TORSDOF 5
