stable:False satoms:16 tatoms:24 sratio:0.6666666666666666
  -OEChem-07092417303D

 24 26  0     1  0  0  0  0  0999 V2000
    8.5198   -2.2076   23.7988 N   0  3  3  0  0  0  0  0  0  0  0  0
    6.7222   -3.1275   23.9499 H   0  0  0  0  0  0  0  0  0  0  0  0
    7.1536   -0.3699   20.5372 C   0  0  0  0  0  0  0  0  0  0  0  0
   10.3785   -0.8851   25.1086 N   0  0  0  0  0  0  0  0  0  0  0  0
   11.3277   -0.5352   22.7794 O   0  0  0  0  0  0  0  0  0  0  0  0
    7.6262   -3.1562   23.3482 C   0  0  0  0  0  0  0  0  0  0  0  0
   10.1741   -0.5424   22.2898 C   0  0  0  0  0  0  0  0  0  0  0  0
    7.5706    2.2813   18.9674 H   0  0  0  0  0  0  0  0  0  0  0  0
   10.0635    1.0547   19.7327 H   0  0  0  0  0  0  0  0  0  0  0  0
   11.0470   -0.3515   24.6199 H   0  0  0  0  0  0  0  0  0  0  0  0
    9.4812   -0.1257   21.4330 C   0  0  0  0  0  0  0  0  0  0  0  0
    7.9892    0.6195   19.9574 C   0  0  0  0  0  0  0  0  0  0  0  0
    9.5809   -3.7276   25.1984 H   0  0  0  0  0  0  0  0  0  0  0  0
    8.0255   -4.1622   23.3558 H   0  0  0  0  0  0  0  0  0  0  0  0
    8.9478   -2.8131   25.0886 C   0  0  0  0  0  0  0  0  0  0  0  0
    8.2925   -2.8372   25.9834 H   0  0  0  0  0  0  0  0  0  0  0  0
    7.0824   -2.8757   21.6292 S   0  0  0  0  0  0  0  0  0  0  0  0
    6.1322   -0.4062   20.2563 H   0  0  0  0  0  0  0  0  0  0  0  0
    7.6577   -1.2974   21.3583 C   0  0  3  0  0  0  0  0  0  0  0  0
    9.3999   -1.8102   24.6096 C   0  0  3  0  0  0  0  0  0  0  0  0
    9.2915    0.6593   20.2619 C   0  0  0  0  0  0  0  0  0  0  0  0
    8.8494   -0.9488   22.0149 N   0  0  0  0  0  0  0  0  0  0  0  0
   10.7207   -1.1013   26.0145 H   0  0  0  0  0  0  0  0  0  0  0  0
    7.5500    1.3759   19.0037 O   0  0  0  0  0  0  0  0  0  0  0  0
  8 24  1  0  0  0  0
 12 24  1  0  0  0  0
  9 21  1  0  0  0  0
 12 21  1  0  0  0  0
  3 12  2  0  0  0  0
  3 18  1  0  0  0  0
 11 21  2  0  0  0  0
  3 19  1  0  0  0  0
 17 19  1  0  0  0  0
 19 22  1  0  0  0  0
 11 22  1  0  0  0  0
  7 11  1  0  0  0  0
  6 17  1  0  0  0  0
  7 22  1  0  0  0  0
  5  7  2  0  0  0  0
  6 14  1  0  0  0  0
  1  6  1  0  0  0  0
  2  6  1  0  0  0  0
  1 20  1  0  0  0  0
  1 15  1  0  0  0  0
 15 20  1  0  0  0  0
  4 20  1  0  0  0  0
  4 10  1  0  0  0  0
 13 15  1  0  0  0  0
 15 16  1  0  0  0  0
  4 23  1  0  0  0  0
M  CHG  1   1   1
M  END
> <Shapegauss>
-144.024353

$$$$
