stable:False satoms:16 tatoms:24 sratio:0.6666666666666666
  -OEChem-08052417253D

 27 29  0     1  0  0  0  0  0999 V2000
   -8.9873    0.8506  -21.7628 N   0  0  3  0  0  0  0  0  0  0  0  0
   -8.6037   -0.5782  -20.3802 H   0  0  0  0  0  0  0  0  0  0  0  0
  -12.1246   -1.3118  -22.9302 C   0  0  0  0  0  0  0  0  0  0  0  0
   -9.2196    3.4377  -22.1781 N   0  3  0  0  0  0  0  0  0  0  0  0
  -10.0644    2.6789  -24.4494 O   0  0  0  0  0  0  0  0  0  0  0  0
   -8.5335   -0.4137  -21.4517 C   0  0  0  0  0  0  0  0  0  0  0  0
  -10.5420    1.6370  -23.9425 C   0  0  0  0  0  0  0  0  0  0  0  0
  -14.9274   -0.9095  -24.2145 H   0  0  0  0  0  0  0  0  0  0  0  0
  -12.8778    0.6111  -25.5530 H   0  0  0  0  0  0  0  0  0  0  0  0
   -9.2296    3.5168  -23.1749 H   0  0  0  0  0  0  0  0  0  0  0  0
  -11.3988    0.8310  -24.0078 C   0  0  0  0  0  0  0  0  0  0  0  0
  -12.9812   -0.7321  -23.9014 C   0  0  0  0  0  0  0  0  0  0  0  0
   -6.8525    1.7570  -21.6337 H   0  0  0  0  0  0  0  0  0  0  0  0
   -7.5163   -0.5975  -21.7728 H   0  0  0  0  0  0  0  0  0  0  0  0
   -7.8866    1.6884  -21.2150 C   0  0  0  0  0  0  0  0  0  0  0  0
   -7.7412    1.8460  -20.1266 H   0  0  0  0  0  0  0  0  0  0  0  0
   -9.5197   -1.7431  -22.2194 S   0  0  0  0  0  0  0  0  0  0  0  0
  -12.4687   -2.1487  -22.3782 H   0  0  0  0  0  0  0  0  0  0  0  0
  -10.8726   -0.8699  -22.7693 C   0  0  3  0  0  0  0  0  0  0  0  0
   -8.8267    2.0991  -21.8372 C   0  0  3  0  0  0  0  0  0  0  0  0
  -12.5549    0.2975  -24.6421 C   0  0  0  0  0  0  0  0  0  0  0  0
  -10.6348    0.4527  -23.1780 N   0  0  0  0  0  0  0  0  0  0  0  0
  -10.1320    3.6255  -21.8146 H   0  0  0  0  0  0  0  0  0  0  0  0
  -14.1065   -1.2937  -24.2062 O   0  0  0  0  0  0  0  0  0  0  0  0
  -11.0969   -0.5367  -21.7452 H   0  0  0  0  0  0  0  0  0  0  0  0
   -8.2771    1.9964  -22.7845 H   0  0  0  0  0  0  0  0  0  0  0  0
   -8.5667    4.0903  -21.7934 H   0  0  0  0  0  0  0  0  0  0  0  0
  8 24  1  0  0  0  0
 12 24  1  0  0  0  0
  9 21  1  0  0  0  0
 12 21  1  0  0  0  0
  3 12  2  0  0  0  0
  3 18  1  0  0  0  0
 11 21  2  0  0  0  0
  3 19  1  0  0  0  0
 17 19  1  0  0  0  0
 19 22  1  0  0  0  0
 11 22  1  0  0  0  0
  7 11  1  0  0  0  0
  6 17  1  0  0  0  0
  7 22  1  0  0  0  0
  5  7  2  0  0  0  0
  6 14  1  0  0  0  0
  1  6  1  0  0  0  0
  2  6  1  0  0  0  0
  1 20  1  0  0  0  0
  1 15  1  0  0  0  0
 15 20  1  0  0  0  0
  4 20  1  0  0  0  0
  4 10  1  0  0  0  0
 13 15  1  0  0  0  0
 15 16  1  0  0  0  0
  4 23  1  0  0  0  0
 19 25  1  0  0  0  0
 20 26  1  0  0  0  0
  4 27  1  0  0  0  0
M  CHG  1   4   1
M  END
> <Chemgauss4>
-6.739388

$$$$
