stable:False satoms:16 tatoms:24 sratio:0.6666666666666666
  -OEChem-08052417253D

 27 29  0     1  0  0  0  0  0999 V2000
    8.9617    0.7954   21.8496 N   0  0  3  0  0  0  0  0  0  0  0  0
    8.5781   -0.6335   20.4670 H   0  0  0  0  0  0  0  0  0  0  0  0
   12.0990   -1.3671   23.0170 C   0  0  0  0  0  0  0  0  0  0  0  0
    9.1940    3.3824   22.2649 N   0  3  0  0  0  0  0  0  0  0  0  0
   10.0388    2.6236   24.5362 O   0  0  0  0  0  0  0  0  0  0  0  0
    8.5079   -0.4690   21.5385 C   0  0  0  0  0  0  0  0  0  0  0  0
   10.5164    1.5817   24.0293 C   0  0  0  0  0  0  0  0  0  0  0  0
   14.9018   -0.9648   24.3014 H   0  0  0  0  0  0  0  0  0  0  0  0
   12.8522    0.5558   25.6398 H   0  0  0  0  0  0  0  0  0  0  0  0
    9.2040    3.4615   23.2617 H   0  0  0  0  0  0  0  0  0  0  0  0
   11.3732    0.7757   24.0946 C   0  0  0  0  0  0  0  0  0  0  0  0
   12.9557   -0.7874   23.9883 C   0  0  0  0  0  0  0  0  0  0  0  0
    6.8270    1.7017   21.7205 H   0  0  0  0  0  0  0  0  0  0  0  0
    7.4907   -0.6528   21.8596 H   0  0  0  0  0  0  0  0  0  0  0  0
    7.8610    1.6331   21.3019 C   0  0  0  0  0  0  0  0  0  0  0  0
    7.7157    1.7907   20.2134 H   0  0  0  0  0  0  0  0  0  0  0  0
    9.4941   -1.7984   22.3063 S   0  0  0  0  0  0  0  0  0  0  0  0
   12.4431   -2.2040   22.4650 H   0  0  0  0  0  0  0  0  0  0  0  0
   10.8470   -0.9252   22.8561 C   0  0  3  0  0  0  0  0  0  0  0  0
    8.8011    2.0438   21.9240 C   0  0  3  0  0  0  0  0  0  0  0  0
   12.5293    0.2422   24.7289 C   0  0  0  0  0  0  0  0  0  0  0  0
   10.6092    0.3974   23.2649 N   0  0  0  0  0  0  0  0  0  0  0  0
   10.1064    3.5702   21.9014 H   0  0  0  0  0  0  0  0  0  0  0  0
   14.0809   -1.3490   24.2930 O   0  0  0  0  0  0  0  0  0  0  0  0
   11.0713   -0.5920   21.8321 H   0  0  0  0  0  0  0  0  0  0  0  0
    8.2516    1.9411   22.8713 H   0  0  0  0  0  0  0  0  0  0  0  0
    8.5411    4.0350   21.8802 H   0  0  0  0  0  0  0  0  0  0  0  0
  8 24  1  0  0  0  0
 12 24  1  0  0  0  0
  9 21  1  0  0  0  0
 12 21  1  0  0  0  0
  3 12  2  0  0  0  0
  3 18  1  0  0  0  0
 11 21  2  0  0  0  0
  3 19  1  0  0  0  0
 17 19  1  0  0  0  0
 19 22  1  0  0  0  0
 11 22  1  0  0  0  0
  7 11  1  0  0  0  0
  6 17  1  0  0  0  0
  7 22  1  0  0  0  0
  5  7  2  0  0  0  0
  6 14  1  0  0  0  0
  1  6  1  0  0  0  0
  2  6  1  0  0  0  0
  1 20  1  0  0  0  0
  1 15  1  0  0  0  0
 15 20  1  0  0  0  0
  4 20  1  0  0  0  0
  4 10  1  0  0  0  0
 13 15  1  0  0  0  0
 15 16  1  0  0  0  0
  4 23  1  0  0  0  0
 19 25  1  0  0  0  0
 20 26  1  0  0  0  0
  4 27  1  0  0  0  0
M  CHG  1   4   1
M  END
> <Chemgauss4>
-6.773852

$$$$
