
 OpenBabel07202414163D

 57 61  0  0  0  0  0  0  0  0999 V2000
   -2.0985   -0.2918   -0.5307 Cl  0  0  0  0  0  0  0  0  0  0  0  0
   -0.3794   -0.1937   -0.5071 C   0  0  0  0  0  0  0  0  0  0  0  0
    0.2398    1.0582   -0.5905 C   0  0  0  0  0  0  0  0  0  0  0  0
    1.6318    1.1600   -0.5966 C   0  0  0  0  0  0  0  0  0  0  0  0
    2.2486    2.4185   -0.7363 N   0  0  0  0  0  0  0  0  0  0  0  0
    3.5165    2.7232   -1.2678 C   0  0  0  0  0  0  0  0  0  0  0  0
    4.3659    3.7155   -0.7281 C   0  0  0  0  0  0  0  0  0  0  0  0
    4.1066    4.5913    0.2988 O   0  0  0  0  0  0  0  0  0  0  0  0
    3.4348    4.2557    1.4462 C   0  0  0  0  0  0  0  0  0  0  0  0
    3.3247    2.9821    1.9972 C   0  0  0  0  0  0  0  0  0  0  0  0
    2.5353    2.7816    3.1345 C   0  0  0  0  0  0  0  0  0  0  0  0
    1.9163    3.8628    3.7624 C   0  0  0  0  0  0  0  0  0  0  0  0
    2.1107    5.1515    3.2739 C   0  0  0  0  0  0  0  0  0  0  0  0
    2.8712    5.3447    2.1215 C   0  0  0  0  0  0  0  0  0  0  0  0
    5.6066    3.9659   -1.3427 C   0  0  0  0  0  0  0  0  0  0  0  0
    6.0238    3.2490   -2.4620 C   0  0  0  0  0  0  0  0  0  0  0  0
    5.2021    2.2631   -2.9865 C   0  0  0  0  0  0  0  0  0  0  0  0
    3.9693    2.0082   -2.3908 C   0  0  0  0  0  0  0  0  0  0  0  0
    2.3758   -0.0273   -0.5148 C   0  0  0  0  0  0  0  0  0  0  0  0
    1.7717   -1.2956   -0.4230 C   0  0  0  0  0  0  0  0  0  0  0  0
    2.6217   -2.5403   -0.3483 C   0  0  0  0  0  0  0  0  0  0  0  0
    2.9224   -3.0468    1.0568 C   0  0  0  0  0  0  0  0  0  0  0  0
    2.7577   -4.2280    1.3535 O   0  0  0  0  0  0  0  0  0  0  0  0
    3.4325   -2.0826    1.9126 N   0  0  0  0  0  0  0  0  0  0  0  0
    3.7115   -2.3622    3.2737 C   0  0  0  0  0  0  0  0  0  0  0  0
    3.0175   -1.6236    4.2335 C   0  0  0  0  0  0  0  0  0  0  0  0
    3.1902   -1.7394    5.5644 N   0  0  0  0  0  0  0  0  0  0  0  0
    4.1899   -2.5558    5.9579 C   0  0  0  0  0  0  0  0  0  0  0  0
    5.0454   -3.2392    5.0922 C   0  0  0  0  0  0  0  0  0  0  0  0
    6.1988   -3.8812    5.5769 C   0  0  0  0  0  0  0  0  0  0  0  0
    7.0513   -4.5592    4.7104 C   0  0  0  0  0  0  0  0  0  0  0  0
    6.7174   -4.6664    3.3665 C   0  0  0  0  0  0  0  0  0  0  0  0
    5.5877   -4.0053    2.8692 C   0  0  0  0  0  0  0  0  0  0  0  0
    4.7557   -3.2222    3.7084 C   0  0  0  0  0  0  0  0  0  0  0  0
    0.3734   -1.3656   -0.4188 C   0  0  0  0  0  0  0  0  0  0  0  0
   -0.3699    1.9498   -0.6721 H   0  0  0  0  0  0  0  0  0  0  0  0
    1.6766    3.2342   -0.5397 H   0  0  0  0  0  0  0  0  0  0  0  0
    3.8210    2.1323    1.5410 H   0  0  0  0  0  0  0  0  0  0  0  0
    2.3995    1.7804    3.5335 H   0  0  0  0  0  0  0  0  0  0  0  0
    1.2960    3.7027    4.6408 H   0  0  0  0  0  0  0  0  0  0  0  0
    1.6672    6.0035    3.7824 H   0  0  0  0  0  0  0  0  0  0  0  0
    3.0254    6.3526    1.7428 H   0  0  0  0  0  0  0  0  0  0  0  0
    6.2495    4.7529   -0.9489 H   0  0  0  0  0  0  0  0  0  0  0  0
    6.9785    3.4709   -2.9329 H   0  0  0  0  0  0  0  0  0  0  0  0
    5.5049    1.7028   -3.8668 H   0  0  0  0  0  0  0  0  0  0  0  0
    3.3232    1.2569   -2.8440 H   0  0  0  0  0  0  0  0  0  0  0  0
    3.4629    0.0330   -0.5105 H   0  0  0  0  0  0  0  0  0  0  0  0
    3.5801   -2.3734   -0.8565 H   0  0  0  0  0  0  0  0  0  0  0  0
    2.1224   -3.3448   -0.9024 H   0  0  0  0  0  0  0  0  0  0  0  0
    3.0619   -1.1556    1.7367 H   0  0  0  0  0  0  0  0  0  0  0  0
    2.2577   -0.9034    3.9454 H   0  0  0  0  0  0  0  0  0  0  0  0
    4.3010   -2.6390    7.0364 H   0  0  0  0  0  0  0  0  0  0  0  0
    6.4669   -3.8085    6.6292 H   0  0  0  0  0  0  0  0  0  0  0  0
    7.9697   -5.0037    5.0857 H   0  0  0  0  0  0  0  0  0  0  0  0
    7.3473   -5.2460    2.6958 H   0  0  0  0  0  0  0  0  0  0  0  0
    5.3662   -4.1019    1.8098 H   0  0  0  0  0  0  0  0  0  0  0  0
   -0.1283   -2.3278   -0.3641 H   0  0  0  0  0  0  0  0  0  0  0  0
  1  2  1  0  0  0  0
  2  3  2  0  0  0  0
  2 35  1  0  0  0  0
  3  4  1  0  0  0  0
  3 36  1  0  0  0  0
  4  5  1  0  0  0  0
  4 19  2  0  0  0  0
  5  6  1  0  0  0  0
  5 37  1  0  0  0  0
  6  7  2  0  0  0  0
  6 18  1  0  0  0  0
  7  8  1  0  0  0  0
  7 15  1  0  0  0  0
  8  9  1  0  0  0  0
  9 10  2  0  0  0  0
  9 14  1  0  0  0  0
 10 11  1  0  0  0  0
 10 38  1  0  0  0  0
 11 12  2  0  0  0  0
 11 39  1  0  0  0  0
 12 13  1  0  0  0  0
 12 40  1  0  0  0  0
 13 14  2  0  0  0  0
 13 41  1  0  0  0  0
 14 42  1  0  0  0  0
 15 16  2  0  0  0  0
 15 43  1  0  0  0  0
 16 17  1  0  0  0  0
 16 44  1  0  0  0  0
 17 18  2  0  0  0  0
 17 45  1  0  0  0  0
 18 46  1  0  0  0  0
 19 20  1  0  0  0  0
 19 47  1  0  0  0  0
 20 21  1  0  0  0  0
 20 35  2  0  0  0  0
 21 22  1  0  0  0  0
 21 48  1  0  0  0  0
 21 49  1  0  0  0  0
 22 23  2  0  0  0  0
 22 24  1  0  0  0  0
 24 25  1  0  0  0  0
 24 50  1  0  0  0  0
 25 26  2  0  0  0  0
 25 34  1  0  0  0  0
 26 27  1  0  0  0  0
 26 51  1  0  0  0  0
 27 28  2  0  0  0  0
 28 29  1  0  0  0  0
 28 52  1  0  0  0  0
 29 30  2  0  0  0  0
 29 34  1  0  0  0  0
 30 31  1  0  0  0  0
 30 53  1  0  0  0  0
 31 32  2  0  0  0  0
 31 54  1  0  0  0  0
 32 33  1  0  0  0  0
 32 55  1  0  0  0  0
 33 34  2  0  0  0  0
 33 56  1  0  0  0  0
 35 57  1  0  0  0  0
M  END
$$$$
