stable:False satoms:19 tatoms:24 sratio:0.7916666666666666
  -OEChem-08052420583D

 25 26  0     1  0  0  0  0  0999 V2000
  -11.2500    1.6624  -24.0365 C   0  0  0  0  0  0  0  0  0  0  0  0
  -10.7575    1.3689  -25.9513 H   0  0  0  0  0  0  0  0  0  0  0  0
  -12.1616    2.3801  -24.3306 O   0  0  0  0  0  0  0  0  0  0  0  0
  -10.8942    0.8208  -25.1109 N   0  0  0  0  0  0  0  0  0  0  0  0
  -10.1592   -1.2877  -24.3732 N   0  3  0  0  0  0  0  0  0  0  0  0
  -11.0567   -0.4949  -24.9428 C   0  0  0  0  0  0  0  0  0  0  0  0
  -10.0485   -1.5608  -23.0137 C   0  0  0  0  0  0  0  0  0  0  0  0
   -8.9305   -1.5908  -25.9828 H   0  0  0  0  0  0  0  0  0  0  0  0
   -8.0199   -3.9866  -23.7409 C   0  0  0  0  0  0  0  0  0  0  0  0
   -8.2700   -2.5664  -24.1263 C   0  0  2  0  0  0  0  0  0  0  0  0
   -8.9330   -4.5796  -23.6583 H   0  0  0  0  0  0  0  0  0  0  0  0
   -9.8018   -3.0514  -25.5743 H   0  0  0  0  0  0  0  0  0  0  0  0
  -11.9410   -0.9538  -25.3337 H   0  0  0  0  0  0  0  0  0  0  0  0
   -7.3378   -3.5942  -22.3389 C   0  0  0  0  0  0  0  0  0  0  0  0
  -10.9624   -1.4170  -22.0887 N   0  0  0  0  0  0  0  0  0  0  0  0
   -7.2833   -4.5301  -24.3196 H   0  0  0  0  0  0  0  0  0  0  0  0
   -6.3830   -3.1083  -22.5677 H   0  0  0  0  0  0  0  0  0  0  0  0
   -8.8384   -2.1786  -22.7773 C   0  0  0  0  0  0  0  0  0  0  0  0
   -9.2995   -2.1718  -25.1525 C   0  0  0  0  0  0  0  0  0  0  0  0
   -7.1594   -4.4566  -21.6775 H   0  0  0  0  0  0  0  0  0  0  0  0
   -8.2244   -2.7107  -21.7241 O   0  0  0  0  0  0  0  0  0  0  0  0
   -7.3220   -2.0177  -24.2596 H   0  0  0  0  0  0  0  0  0  0  0  0
  -11.7555   -0.9449  -22.4736 H   0  0  0  0  0  0  0  0  0  0  0  0
  -10.3941    1.4985  -22.5990 S   0  5  0  0  0  0  0  0  0  0  0  0
  -11.2409   -2.3168  -21.7527 H   0  0  0  0  0  0  0  0  0  0  0  0
 14 20  1  0  0  0  0
 14 17  1  0  0  0  0
  9 16  1  0  0  0  0
  9 14  1  0  0  0  0
 14 21  1  0  0  0  0
  9 11  1  0  0  0  0
  9 10  1  0  0  0  0
 10 22  1  0  0  0  0
 18 21  1  0  0  0  0
 10 18  1  0  0  0  0
 10 19  1  0  0  0  0
  7 18  2  0  0  0  0
 12 19  1  0  0  0  0
  8 19  1  0  0  0  0
  5 19  1  0  0  0  0
  5  7  1  0  0  0  0
  7 15  1  0  0  0  0
  5  6  2  3  0  0  0
 15 23  1  0  0  0  0
  4  6  1  0  0  0  0
  6 13  1  0  0  0  0
  1 24  1  0  0  0  0
  2  4  1  0  0  0  0
  1  4  1  0  0  0  0
  1  3  2  0  0  0  0
 15 25  1  0  0  0  0
M  CHG  2   5   1  24  -1
M  END
> <Chemgauss4>
-6.354822

$$$$
