stable:False satoms:19 tatoms:24 sratio:0.7916666666666666
  -OEChem-08052420583D

 25 26  0     1  0  0  0  0  0999 V2000
   11.3707    1.5534   24.0365 C   0  0  0  0  0  0  0  0  0  0  0  0
   10.8781    1.2599   25.9514 H   0  0  0  0  0  0  0  0  0  0  0  0
   12.2823    2.2711   24.3306 O   0  0  0  0  0  0  0  0  0  0  0  0
   11.0149    0.7119   25.1109 N   0  0  0  0  0  0  0  0  0  0  0  0
   10.2799   -1.3967   24.3732 N   0  3  0  0  0  0  0  0  0  0  0  0
   11.1773   -0.6039   24.9428 C   0  0  0  0  0  0  0  0  0  0  0  0
   10.1692   -1.6698   23.0137 C   0  0  0  0  0  0  0  0  0  0  0  0
    9.0511   -1.6998   25.9828 H   0  0  0  0  0  0  0  0  0  0  0  0
    8.1406   -4.0956   23.7409 C   0  0  0  0  0  0  0  0  0  0  0  0
    8.3907   -2.6754   24.1263 C   0  0  2  0  0  0  0  0  0  0  0  0
    9.0537   -4.6886   23.6583 H   0  0  0  0  0  0  0  0  0  0  0  0
    9.9224   -3.1604   25.5743 H   0  0  0  0  0  0  0  0  0  0  0  0
   12.0616   -1.0628   25.3338 H   0  0  0  0  0  0  0  0  0  0  0  0
    7.4585   -3.7032   22.3389 C   0  0  0  0  0  0  0  0  0  0  0  0
   11.0831   -1.5260   22.0887 N   0  0  0  0  0  0  0  0  0  0  0  0
    7.4040   -4.6391   24.3196 H   0  0  0  0  0  0  0  0  0  0  0  0
    6.5036   -3.2173   22.5677 H   0  0  0  0  0  0  0  0  0  0  0  0
    8.9591   -2.2876   22.7773 C   0  0  0  0  0  0  0  0  0  0  0  0
    9.4202   -2.2808   25.1525 C   0  0  0  0  0  0  0  0  0  0  0  0
    7.2800   -4.5656   21.6775 H   0  0  0  0  0  0  0  0  0  0  0  0
    8.3450   -2.8197   21.7241 O   0  0  0  0  0  0  0  0  0  0  0  0
    7.4427   -2.1267   24.2596 H   0  0  0  0  0  0  0  0  0  0  0  0
   11.8762   -1.0539   22.4736 H   0  0  0  0  0  0  0  0  0  0  0  0
   10.5148    1.3895   22.5990 S   0  5  0  0  0  0  0  0  0  0  0  0
   11.3615   -2.4258   21.7527 H   0  0  0  0  0  0  0  0  0  0  0  0
 14 20  1  0  0  0  0
 14 17  1  0  0  0  0
  9 16  1  0  0  0  0
  9 14  1  0  0  0  0
 14 21  1  0  0  0  0
  9 11  1  0  0  0  0
  9 10  1  0  0  0  0
 10 22  1  0  0  0  0
 18 21  1  0  0  0  0
 10 18  1  0  0  0  0
 10 19  1  0  0  0  0
  7 18  2  0  0  0  0
 12 19  1  0  0  0  0
  8 19  1  0  0  0  0
  5 19  1  0  0  0  0
  5  7  1  0  0  0  0
  7 15  1  0  0  0  0
  5  6  2  3  0  0  0
 15 23  1  0  0  0  0
  4  6  1  0  0  0  0
  6 13  1  0  0  0  0
  1 24  1  0  0  0  0
  2  4  1  0  0  0  0
  1  4  1  0  0  0  0
  1  3  2  0  0  0  0
 15 25  1  0  0  0  0
M  CHG  2   5   1  24  -1
M  END
> <Chemgauss4>
-6.391918

$$$$
