stable:False satoms:11 tatoms:24 sratio:0.4583333333333333
  -OEChem-08062415443D

 45 46  0     1  0  0  0  0  0999 V2000
    6.4233   -5.1379   26.2731 C   0  0  0  0  0  0  0  0  0  0  0  0
    8.0299   -4.5142   26.0456 S   0  0  0  0  0  0  0  0  0  0  0  0
    8.9436   -5.6449   25.9924 O   0  0  0  0  0  0  0  0  0  0  0  0
    8.3382   -3.6512   27.1773 O   0  0  0  0  0  0  0  0  0  0  0  0
    7.9905   -3.7388   24.6499 N   0  0  0  0  0  0  0  0  0  0  0  0
    8.9164   -3.0230   24.1787 C   0  0  0  0  0  0  0  0  0  0  0  0
    9.3717   -2.0765   23.6393 C   0  0  0  0  0  0  0  0  0  0  0  0
   10.2754   -1.2088   23.4657 C   0  0  1  0  0  0  0  0  0  0  0  0
   10.8937   -0.0792   24.6265 C   0  0  0  0  0  0  0  0  0  0  0  0
   11.9137    0.2524   24.6694 C   0  0  0  0  0  0  0  0  0  0  0  0
   13.0961   -0.1837   23.9101 C   0  0  0  0  0  0  0  0  0  0  0  0
   12.7099   -1.2495   23.0006 C   0  0  0  0  0  0  0  0  0  0  0  0
   11.7782   -1.7048   22.8268 C   0  0  0  0  0  0  0  0  0  0  0  0
    9.7299   -0.5439   22.5625 C   0  0  0  0  0  0  0  0  0  0  0  0
    9.0908    0.0966   21.6196 C   0  0  0  0  0  0  0  0  0  0  0  0
    9.5306    1.0700   21.3008 O   0  0  0  0  0  0  0  0  0  0  0  0
    7.9744   -0.5433   21.1961 N   0  0  0  0  0  0  0  0  0  0  0  0
    7.3368   -0.0579   20.2339 C   0  0  0  0  0  0  0  0  0  0  0  0
    7.4619    0.0628   18.9154 C   0  0  0  0  0  0  0  0  0  0  0  0
    7.0497    0.4392   17.8360 N   0  0  0  0  0  0  0  0  0  0  0  0
    5.8429    0.9850   18.2599 C   0  0  0  0  0  0  0  0  0  0  0  0
    5.4090    1.0169   19.3892 C   0  0  0  0  0  0  0  0  0  0  0  0
    5.8974    0.5576   20.5618 C   0  0  0  0  0  0  0  0  0  0  0  0
    5.3000    0.5846   21.9731 C   0  0  0  0  0  0  0  0  0  0  0  0
    6.3747   -5.6893   27.2237 H   0  0  0  0  0  0  0  0  0  0  0  0
    5.7062   -4.3040   26.2960 H   0  0  0  0  0  0  0  0  0  0  0  0
    6.1720   -5.8149   25.4434 H   0  0  0  0  0  0  0  0  0  0  0  0
    7.1942   -3.1364   24.7056 H   0  0  0  0  0  0  0  0  0  0  0  0
    9.7953   -3.6142   24.3891 H   0  0  0  0  0  0  0  0  0  0  0  0
    8.6207   -1.8125   22.9095 H   0  0  0  0  0  0  0  0  0  0  0  0
   10.2048    0.3184   25.3571 H   0  0  0  0  0  0  0  0  0  0  0  0
   12.1034    1.0354   25.3887 H   0  0  0  0  0  0  0  0  0  0  0  0
   14.0914    0.2229   24.0123 H   0  0  0  0  0  0  0  0  0  0  0  0
   13.5182   -1.6407   22.4006 H   0  0  0  0  0  0  0  0  0  0  0  0
   11.6472   -1.6818   21.7349 H   0  0  0  0  0  0  0  0  0  0  0  0
   11.9016   -2.7461   23.1594 H   0  0  0  0  0  0  0  0  0  0  0  0
   10.6141   -0.6547   21.9175 H   0  0  0  0  0  0  0  0  0  0  0  0
    9.8220    0.3778   23.1558 H   0  0  0  0  0  0  0  0  0  0  0  0
    7.6665   -1.3839   21.6417 H   0  0  0  0  0  0  0  0  0  0  0  0
    8.4047   -0.4139   18.6909 H   0  0  0  0  0  0  0  0  0  0  0  0
    5.2234    1.4303   17.4955 H   0  0  0  0  0  0  0  0  0  0  0  0
    4.4495    1.5050   19.4758 H   0  0  0  0  0  0  0  0  0  0  0  0
    4.7162   -0.3322   22.1424 H   0  0  0  0  0  0  0  0  0  0  0  0
    6.1114    0.6444   22.7135 H   0  0  0  0  0  0  0  0  0  0  0  0
    4.6438    1.4613   22.0767 H   0  0  0  0  0  0  0  0  0  0  0  0
 20 21  2  0  0  0  0
 19 20  1  0  0  0  0
 21 22  1  0  0  0  0
 18 19  2  0  0  0  0
 22 23  2  0  0  0  0
 18 23  1  0  0  0  0
 17 18  1  0  0  0  0
 23 24  1  0  0  0  0
 15 16  2  0  0  0  0
 15 17  1  0  0  0  0
 14 15  1  0  0  0  0
  8 14  1  0  0  0  0
 12 13  1  0  0  0  0
  8 13  1  0  0  0  0
 11 12  2  0  0  0  0
  7  8  1  0  0  0  0
  8  9  1  0  0  0  0
 10 11  1  0  0  0  0
  6  7  2  3  0  0  0
  5  6  1  0  0  0  0
  9 10  2  0  0  0  0
  2  5  1  0  0  0  0
  2  3  2  0  0  0  0
  1  2  1  0  0  0  0
  2  4  2  0  0  0  0
  1 25  1  0  0  0  0
  1 26  1  0  0  0  0
  1 27  1  0  0  0  0
  5 28  1  0  0  0  0
  6 29  1  0  0  0  0
  7 30  1  0  0  0  0
  9 31  1  0  0  0  0
 10 32  1  0  0  0  0
 11 33  1  0  0  0  0
 12 34  1  0  0  0  0
 13 35  1  0  0  0  0
 13 36  1  0  0  0  0
 14 37  1  0  0  0  0
 14 38  1  0  0  0  0
 17 39  1  0  0  0  0
 19 40  1  0  0  0  0
 21 41  1  0  0  0  0
 22 42  1  0  0  0  0
 24 43  1  0  0  0  0
 24 44  1  0  0  0  0
 24 45  1  0  0  0  0
M  END
> <Chemgauss4>
-13.147514

$$$$
