stable:False satoms:11 tatoms:24 sratio:0.4583333333333333
  -OEChem-08062415443D

 45 46  0     1  0  0  0  0  0999 V2000
   -6.7646   -5.3118  -26.2612 C   0  0  0  0  0  0  0  0  0  0  0  0
   -8.3712   -4.6881  -26.0337 S   0  0  0  0  0  0  0  0  0  0  0  0
   -9.2848   -5.8188  -25.9804 O   0  0  0  0  0  0  0  0  0  0  0  0
   -8.6794   -3.8251  -27.1654 O   0  0  0  0  0  0  0  0  0  0  0  0
   -8.3318   -3.9127  -24.6379 N   0  0  0  0  0  0  0  0  0  0  0  0
   -9.2576   -3.1969  -24.1668 C   0  0  0  0  0  0  0  0  0  0  0  0
   -9.7130   -2.2504  -23.6274 C   0  0  0  0  0  0  0  0  0  0  0  0
  -10.6166   -1.3827  -23.4538 C   0  0  1  0  0  0  0  0  0  0  0  0
  -11.2349   -0.2531  -24.6146 C   0  0  0  0  0  0  0  0  0  0  0  0
  -12.2550    0.0785  -24.6575 C   0  0  0  0  0  0  0  0  0  0  0  0
  -13.4374   -0.3576  -23.8982 C   0  0  0  0  0  0  0  0  0  0  0  0
  -13.0512   -1.4234  -22.9887 C   0  0  0  0  0  0  0  0  0  0  0  0
  -12.1195   -1.8787  -22.8148 C   0  0  0  0  0  0  0  0  0  0  0  0
  -10.0712   -0.7178  -22.5505 C   0  0  0  0  0  0  0  0  0  0  0  0
   -9.4321   -0.0773  -21.6077 C   0  0  0  0  0  0  0  0  0  0  0  0
   -9.8719    0.8961  -21.2889 O   0  0  0  0  0  0  0  0  0  0  0  0
   -8.3157   -0.7172  -21.1842 N   0  0  0  0  0  0  0  0  0  0  0  0
   -7.6781   -0.2318  -20.2219 C   0  0  0  0  0  0  0  0  0  0  0  0
   -7.8032   -0.1111  -18.9034 C   0  0  0  0  0  0  0  0  0  0  0  0
   -7.3910    0.2654  -17.8241 N   0  0  0  0  0  0  0  0  0  0  0  0
   -6.1841    0.8111  -18.2480 C   0  0  0  0  0  0  0  0  0  0  0  0
   -5.7502    0.8430  -19.3773 C   0  0  0  0  0  0  0  0  0  0  0  0
   -6.2387    0.3837  -20.5498 C   0  0  0  0  0  0  0  0  0  0  0  0
   -5.6413    0.4107  -21.9612 C   0  0  0  0  0  0  0  0  0  0  0  0
   -6.7159   -5.8632  -27.2118 H   0  0  0  0  0  0  0  0  0  0  0  0
   -6.0475   -4.4779  -26.2840 H   0  0  0  0  0  0  0  0  0  0  0  0
   -6.5133   -5.9888  -25.4315 H   0  0  0  0  0  0  0  0  0  0  0  0
   -7.5355   -3.3103  -24.6937 H   0  0  0  0  0  0  0  0  0  0  0  0
  -10.1366   -3.7881  -24.3771 H   0  0  0  0  0  0  0  0  0  0  0  0
   -8.9620   -1.9864  -22.8975 H   0  0  0  0  0  0  0  0  0  0  0  0
  -10.5461    0.1446  -25.3452 H   0  0  0  0  0  0  0  0  0  0  0  0
  -12.4447    0.8615  -25.3767 H   0  0  0  0  0  0  0  0  0  0  0  0
  -14.4327    0.0490  -24.0003 H   0  0  0  0  0  0  0  0  0  0  0  0
  -13.8594   -1.8146  -22.3887 H   0  0  0  0  0  0  0  0  0  0  0  0
  -11.9885   -1.8557  -21.7229 H   0  0  0  0  0  0  0  0  0  0  0  0
  -12.2428   -2.9200  -23.1475 H   0  0  0  0  0  0  0  0  0  0  0  0
  -10.9553   -0.8286  -21.9056 H   0  0  0  0  0  0  0  0  0  0  0  0
  -10.1633    0.2039  -23.1438 H   0  0  0  0  0  0  0  0  0  0  0  0
   -8.0078   -1.5578  -21.6297 H   0  0  0  0  0  0  0  0  0  0  0  0
   -8.7459   -0.5878  -18.6789 H   0  0  0  0  0  0  0  0  0  0  0  0
   -5.5646    1.2565  -17.4836 H   0  0  0  0  0  0  0  0  0  0  0  0
   -4.7908    1.3311  -19.4639 H   0  0  0  0  0  0  0  0  0  0  0  0
   -5.0575   -0.5061  -22.1304 H   0  0  0  0  0  0  0  0  0  0  0  0
   -6.4527    0.4705  -22.7016 H   0  0  0  0  0  0  0  0  0  0  0  0
   -4.9851    1.2875  -22.0648 H   0  0  0  0  0  0  0  0  0  0  0  0
 20 21  2  0  0  0  0
 19 20  1  0  0  0  0
 21 22  1  0  0  0  0
 18 19  2  0  0  0  0
 22 23  2  0  0  0  0
 18 23  1  0  0  0  0
 17 18  1  0  0  0  0
 23 24  1  0  0  0  0
 15 16  2  0  0  0  0
 15 17  1  0  0  0  0
 14 15  1  0  0  0  0
  8 14  1  0  0  0  0
 12 13  1  0  0  0  0
  8 13  1  0  0  0  0
 11 12  2  0  0  0  0
  7  8  1  0  0  0  0
  8  9  1  0  0  0  0
 10 11  1  0  0  0  0
  6  7  2  3  0  0  0
  5  6  1  0  0  0  0
  9 10  2  0  0  0  0
  2  5  1  0  0  0  0
  2  3  2  0  0  0  0
  1  2  1  0  0  0  0
  2  4  2  0  0  0  0
  1 25  1  0  0  0  0
  1 26  1  0  0  0  0
  1 27  1  0  0  0  0
  5 28  1  0  0  0  0
  6 29  1  0  0  0  0
  7 30  1  0  0  0  0
  9 31  1  0  0  0  0
 10 32  1  0  0  0  0
 11 33  1  0  0  0  0
 12 34  1  0  0  0  0
 13 35  1  0  0  0  0
 13 36  1  0  0  0  0
 14 37  1  0  0  0  0
 14 38  1  0  0  0  0
 17 39  1  0  0  0  0
 19 40  1  0  0  0  0
 21 41  1  0  0  0  0
 22 42  1  0  0  0  0
 24 43  1  0  0  0  0
 24 44  1  0  0  0  0
 24 45  1  0  0  0  0
M  END
> <Chemgauss4>
-12.613866

$$$$
