
 OpenBabel07202414153D

 49 52  0  0  1  0  0  0  0  0999 V2000
    1.1759   -0.6957    0.0545 C   0  0  0  0  0  0  0  0  0  0  0  0
    2.6877   -0.8995    0.0175 C   0  0  2  0  0  0  0  0  0  0  0  0
    2.9641   -2.2297   -0.4363 O   0  0  0  0  0  0  0  0  0  0  0  0
    3.3468   -0.6665    1.3973 C   0  0  0  0  0  0  0  0  0  0  0  0
    4.8153   -0.6679    1.3085 N   0  0  0  0  0  0  0  0  0  0  0  0
    5.5607   -1.9243    1.3789 C   0  0  0  0  0  0  0  0  0  0  0  0
    6.4447   -2.1710    0.1559 C   0  0  2  0  0  0  0  0  0  0  0  0
    7.4660   -3.2981    0.4049 C   0  0  0  0  0  0  0  0  0  0  0  0
    7.3665   -4.3342   -0.2528 O   0  0  0  0  0  0  0  0  0  0  0  0
    8.4520   -3.0672    1.3591 N   0  0  0  0  0  0  0  0  0  0  0  0
    9.5596   -3.9412    1.6322 C   0  0  0  0  0  0  0  0  0  0  0  0
    9.9183   -4.9724    0.7616 C   0  0  0  0  0  0  0  0  0  0  0  0
   10.8994   -5.8819    0.9844 N   0  0  0  0  0  0  0  0  0  0  0  0
   11.5867   -5.7521    2.1333 C   0  0  0  0  0  0  0  0  0  0  0  0
   11.4017   -4.7298    3.0460 C   0  0  0  0  0  0  0  0  0  0  0  0
   12.2355   -4.6220    4.1743 C   0  0  0  0  0  0  0  0  0  0  0  0
   12.0783   -3.5886    5.0846 C   0  0  0  0  0  0  0  0  0  0  0  0
   11.0675   -2.6585    4.8933 C   0  0  0  0  0  0  0  0  0  0  0  0
   10.2165   -2.7606    3.7777 C   0  0  0  0  0  0  0  0  0  0  0  0
   10.3617   -3.7754    2.8066 C   0  0  0  0  0  0  0  0  0  0  0  0
    7.0865   -0.9009   -0.3670 C   0  0  0  0  0  0  0  0  0  0  0  0
    8.0163   -0.9655   -1.4219 C   0  0  0  0  0  0  0  0  0  0  0  0
    8.5417    0.2007   -1.9781 C   0  0  0  0  0  0  0  0  0  0  0  0
    9.6163    0.0980   -3.3163 Cl  0  0  0  0  0  0  0  0  0  0  0  0
    8.1705    1.4467   -1.4824 C   0  0  0  0  0  0  0  0  0  0  0  0
    7.2297    1.5289   -0.4556 C   0  0  0  0  0  0  0  0  0  0  0  0
    6.6595    0.3636    0.0795 C   0  0  0  0  0  0  0  0  0  0  0  0
    5.4493    0.5087    0.9393 C   0  0  0  0  0  0  0  0  0  0  0  0
    4.9915    1.6215    1.1757 O   0  0  0  0  0  0  0  0  0  0  0  0
    0.9167    0.3427    0.2823 H   0  0  0  0  0  0  0  0  0  0  0  0
    0.7082   -1.3445    0.8030 H   0  0  0  0  0  0  0  0  0  0  0  0
    0.7295   -0.9607   -0.9112 H   0  0  0  0  0  0  0  0  0  0  0  0
    3.1161   -0.2156   -0.7243 H   0  0  0  0  0  0  0  0  0  0  0  0
    2.3372   -2.8345   -0.0038 H   0  0  0  0  0  0  0  0  0  0  0  0
    3.0451   -1.4335    2.1177 H   0  0  0  0  0  0  0  0  0  0  0  0
    3.0221    0.3081    1.7808 H   0  0  0  0  0  0  0  0  0  0  0  0
    4.8683   -2.7606    1.5299 H   0  0  0  0  0  0  0  0  0  0  0  0
    6.1654   -1.8533    2.2896 H   0  0  0  0  0  0  0  0  0  0  0  0
    5.7838   -2.5168   -0.6511 H   0  0  0  0  0  0  0  0  0  0  0  0
    8.3544   -2.2613    1.9565 H   0  0  0  0  0  0  0  0  0  0  0  0
    9.4510   -5.1057   -0.2055 H   0  0  0  0  0  0  0  0  0  0  0  0
   12.3395   -6.5238    2.2915 H   0  0  0  0  0  0  0  0  0  0  0  0
   13.0354   -5.3460    4.3386 H   0  0  0  0  0  0  0  0  0  0  0  0
   12.7404   -3.5036    5.9417 H   0  0  0  0  0  0  0  0  0  0  0  0
   10.9326   -1.8471    5.6029 H   0  0  0  0  0  0  0  0  0  0  0  0
    9.4475   -1.9980    3.6797 H   0  0  0  0  0  0  0  0  0  0  0  0
    8.2961   -1.9284   -1.8491 H   0  0  0  0  0  0  0  0  0  0  0  0
    8.5679    2.3572   -1.9233 H   0  0  0  0  0  0  0  0  0  0  0  0
    6.8901    2.5081   -0.1206 H   0  0  0  0  0  0  0  0  0  0  0  0
  1 30  1  0  0  0  0
  1 31  1  0  0  0  0
  1 32  1  0  0  0  0
  2  4  1  0  0  0  0
  2  3  1  0  0  0  0
  2  1  1  0  0  0  0
  2 33  1  6  0  0  0
  3 34  1  0  0  0  0
  4  5  1  0  0  0  0
  4 35  1  0  0  0  0
  4 36  1  0  0  0  0
  5  6  1  0  0  0  0
  5 28  1  0  0  0  0
  6  7  1  0  0  0  0
  6 37  1  0  0  0  0
  6 38  1  0  0  0  0
  7 21  1  0  0  0  0
  7  8  1  0  0  0  0
  7 39  1  6  0  0  0
  8  9  2  0  0  0  0
  8 10  1  0  0  0  0
 10 11  1  0  0  0  0
 10 40  1  0  0  0  0
 11 12  1  0  0  0  0
 11 20  2  0  0  0  0
 12 13  2  0  0  0  0
 12 41  1  0  0  0  0
 13 14  1  0  0  0  0
 14 15  2  0  0  0  0
 14 42  1  0  0  0  0
 15 16  1  0  0  0  0
 15 20  1  0  0  0  0
 16 17  2  0  0  0  0
 16 43  1  0  0  0  0
 17 18  1  0  0  0  0
 17 44  1  0  0  0  0
 18 19  2  0  0  0  0
 18 45  1  0  0  0  0
 19 20  1  0  0  0  0
 19 46  1  0  0  0  0
 21 22  1  0  0  0  0
 21 27  2  0  0  0  0
 22 23  2  0  0  0  0
 22 47  1  0  0  0  0
 23 24  1  0  0  0  0
 23 25  1  0  0  0  0
 25 26  2  0  0  0  0
 25 48  1  0  0  0  0
 26 27  1  0  0  0  0
 26 49  1  0  0  0  0
 27 28  1  0  0  0  0
 28 29  2  0  0  0  0
M  END
$$$$
