MODEL 1
REMARK VINA RESULT:    -5.368      0.000      0.000
REMARK INTER + INTRA:          -6.938
REMARK INTER:                  -6.623
REMARK INTRA:                  -0.314
REMARK UNBOUND:                -0.314
REMARK  4 active torsions:
REMARK  status: ('A' for Active; 'I' for Inactive)
REMARK       I    between atoms: C_3  and  N_10 
REMARK    1  A    between atoms: C_3  and  C_16 
REMARK    2  A    between atoms: C_4  and  C_8 
REMARK    3  A    between atoms: C_5  and  C_7 
REMARK    4  A    between atoms: N_12  and  C_14 
ROOT
HETATM    1  C   UNL     1       7.953   0.398  20.126  1.00  0.00     0.090 C 
HETATM    2  N   UNL     1       8.703  -0.379  20.741  1.00  0.00    -0.350 N 
ATOM      3  HN  UNL     1       9.698  -0.172  20.657  1.00  0.00     0.166 HD
ENDROOT
BRANCH   2   4
HETATM    4  C   UNL     1       8.440  -1.336  21.420  1.00  0.00     0.134 A 
HETATM    5  C   UNL     1       7.935  -2.628  22.300  1.00  0.00     0.096 A 
HETATM    6  C   UNL     1       7.547  -3.848  22.792  1.00  0.00     0.040 C 
HETATM    7  N   UNL     1       8.222  -1.549  22.669  1.00  0.00    -0.336 N 
HETATM    8 BR   UNL     1       6.901  -5.659  22.084  1.00  0.00    -0.049 Br
HETATM    9  H   UNL     1       8.162  -0.873  23.405  1.00  0.00     0.168 HD
BRANCH   6  10
HETATM   10  C   UNL     1       7.611  -3.767  24.123  1.00  0.00     0.011 C 
HETATM   11  C   UNL     1       8.294  -4.502  24.889  1.00  0.00     0.013 C 
ENDBRANCH   6  10
ENDBRANCH   2   4
BRANCH   1  12
HETATM   12  C   UNL     1       6.659   0.823  20.466  1.00  0.00     0.029 C 
HETATM   13  C   UNL     1       5.722   1.076  19.509  1.00  0.00     0.007 C 
HETATM   14  C   UNL     1       4.353   1.439  19.835  1.00  0.00     0.054 C 
BRANCH  13  15
HETATM   15  C   UNL     1       5.865   0.687  18.097  1.00  0.00     0.245 C 
HETATM   16  N   UNL     1       5.737  -0.537  17.658  1.00  0.00    -0.366 N 
HETATM   17  H   UNL     1       5.611  -1.443  17.784  1.00  0.00     0.159 HD
ATOM     18  HN  UNL     1       5.820  -0.442  16.646  1.00  0.00     0.159 HD
HETATM   19  O   UNL     1       6.296   1.560  17.356  1.00  0.00    -0.268 OA
ENDBRANCH  13  15
ENDBRANCH   1  12
TORSDOF 4
ENDMDL
MODEL 2
REMARK VINA RESULT:    -5.340     24.553     26.988
REMARK INTER + INTRA:          -6.904
REMARK INTER:                  -6.517
REMARK INTRA:                  -0.386
REMARK UNBOUND:                -0.314
REMARK  4 active torsions:
REMARK  status: ('A' for Active; 'I' for Inactive)
REMARK       I    between atoms: C_3  and  N_10 
REMARK    1  A    between atoms: C_3  and  C_16 
REMARK    2  A    between atoms: C_4  and  C_8 
REMARK    3  A    between atoms: C_5  and  C_7 
REMARK    4  A    between atoms: N_12  and  C_14 
ROOT
HETATM    1  C   UNL     1       8.464  16.570   4.332  1.00  0.00     0.090 C 
HETATM    2  N   UNL     1       9.350  17.442   4.337  1.00  0.00    -0.350 N 
ATOM      3  HN  UNL     1       9.983  17.408   5.136  1.00  0.00     0.166 HD
ENDROOT
BRANCH   2   4
HETATM    4  C   UNL     1       9.578  18.321   3.547  1.00  0.00     0.134 A 
HETATM    5  C   UNL     1       9.910  19.410   2.364  1.00  0.00     0.096 A 
HETATM    6  C   UNL     1       9.914  20.289   1.312  1.00  0.00     0.040 C 
HETATM    7  N   UNL     1      10.587  19.065   3.262  1.00  0.00    -0.336 N 
HETATM    8 BR   UNL     1       8.766  20.735  -0.326  1.00  0.00    -0.049 Br
HETATM    9  H   UNL     1      11.510  19.018   3.643  1.00  0.00     0.168 HD
BRANCH   6  10
HETATM   10  C   UNL     1      11.017  21.031   1.430  1.00  0.00     0.011 C 
HETATM   11  C   UNL     1      11.203  22.183   0.950  1.00  0.00     0.013 C 
ENDBRANCH   6  10
ENDBRANCH   2   4
BRANCH   1  12
HETATM   12  C   UNL     1       7.874  15.925   3.235  1.00  0.00     0.029 C 
HETATM   13  C   UNL     1       8.492  14.883   2.608  1.00  0.00     0.007 C 
HETATM   14  C   UNL     1       7.869  14.146   1.522  1.00  0.00     0.054 C 
BRANCH  13  15
HETATM   15  C   UNL     1       9.660  14.173   3.154  1.00  0.00     0.245 C 
HETATM   16  N   UNL     1      10.899  14.519   2.927  1.00  0.00    -0.366 N 
HETATM   17  H   UNL     1      11.542  15.039   2.518  1.00  0.00     0.159 HD
ATOM     18  HN  UNL     1      11.440  13.875   3.505  1.00  0.00     0.159 HD
HETATM   19  O   UNL     1       9.413  13.108   3.703  1.00  0.00    -0.268 OA
ENDBRANCH  13  15
ENDBRANCH   1  12
TORSDOF 4
ENDMDL
MODEL 3
REMARK VINA RESULT:    -5.323      5.334      7.043
REMARK INTER + INTRA:          -6.882
REMARK INTER:                  -6.128
REMARK INTRA:                  -0.754
REMARK UNBOUND:                -0.314
REMARK  4 active torsions:
REMARK  status: ('A' for Active; 'I' for Inactive)
REMARK       I    between atoms: C_3  and  N_10 
REMARK    1  A    between atoms: C_3  and  C_16 
REMARK    2  A    between atoms: C_4  and  C_8 
REMARK    3  A    between atoms: C_5  and  C_7 
REMARK    4  A    between atoms: N_12  and  C_14 
ROOT
HETATM    1  C   UNL     1       7.415  -4.380  23.584  1.00  0.00     0.090 C 
HETATM    2  N   UNL     1       8.201  -3.711  22.891  1.00  0.00    -0.350 N 
ATOM      3  HN  UNL     1       8.371  -4.081  21.956  1.00  0.00     0.166 HD
ENDROOT
BRANCH   2   4
HETATM    4  C   UNL     1       8.793  -2.696  23.150  1.00  0.00     0.134 A 
HETATM    5  C   UNL     1       9.690  -1.340  23.382  1.00  0.00     0.096 A 
HETATM    6  C   UNL     1      10.267  -0.096  23.383  1.00  0.00     0.040 C 
HETATM    7  N   UNL     1       9.698  -2.346  23.993  1.00  0.00    -0.336 N 
HETATM    8 BR   UNL     1      10.335   1.570  22.192  1.00  0.00    -0.049 Br
HETATM    9  H   UNL     1      10.192  -2.928  24.639  1.00  0.00     0.168 HD
BRANCH   6  10
HETATM   10  C   UNL     1      10.999  -0.009  24.496  1.00  0.00     0.011 C 
HETATM   11  C   UNL     1      12.252   0.128  24.563  1.00  0.00     0.013 C 
ENDBRANCH   6  10
ENDBRANCH   2   4
BRANCH   1  12
HETATM   12  C   UNL     1       6.507  -3.935  24.556  1.00  0.00     0.029 C 
HETATM   13  C   UNL     1       6.725  -4.156  25.884  1.00  0.00     0.007 C 
HETATM   14  C   UNL     1       5.843  -3.638  26.916  1.00  0.00     0.054 C 
BRANCH  13  15
HETATM   15  C   UNL     1       8.008  -4.616  26.440  1.00  0.00     0.245 C 
HETATM   16  N   UNL     1       8.211  -5.816  26.916  1.00  0.00    -0.366 N 
HETATM   17  H   UNL     1       7.927  -6.661  27.156  1.00  0.00     0.159 HD
ATOM     18  HN  UNL     1       9.206  -5.821  27.142  1.00  0.00     0.159 HD
HETATM   19  O   UNL     1       8.849  -3.743  26.602  1.00  0.00    -0.268 OA
ENDBRANCH  13  15
ENDBRANCH   1  12
TORSDOF 4
ENDMDL
MODEL 4
REMARK VINA RESULT:    -5.301     19.730     22.469
REMARK INTER + INTRA:          -6.854
REMARK INTER:                  -6.239
REMARK INTRA:                  -0.616
REMARK UNBOUND:                -0.314
REMARK  4 active torsions:
REMARK  status: ('A' for Active; 'I' for Inactive)
REMARK       I    between atoms: C_3  and  N_10 
REMARK    1  A    between atoms: C_3  and  C_16 
REMARK    2  A    between atoms: C_4  and  C_8 
REMARK    3  A    between atoms: C_5  and  C_7 
REMARK    4  A    between atoms: N_12  and  C_14 
ROOT
HETATM    1  C   UNL     1       7.443  13.863   1.466  1.00  0.00     0.090 C 
HETATM    2  N   UNL     1       7.473  12.621   1.429  1.00  0.00    -0.350 N 
ATOM      3  HN  UNL     1       8.064  12.228   0.697  1.00  0.00     0.166 HD
ENDROOT
BRANCH   2   4
HETATM    4  C   UNL     1       6.915  11.810   2.121  1.00  0.00     0.134 A 
HETATM    5  C   UNL     1       6.086  10.822   3.137  1.00  0.00     0.096 A 
HETATM    6  C   UNL     1       5.184  10.029   3.798  1.00  0.00     0.040 C 
HETATM    7  N   UNL     1       7.228  11.104   3.148  1.00  0.00    -0.336 N 
HETATM    8 BR   UNL     1       3.162   9.698   3.837  1.00  0.00    -0.049 Br
HETATM    9  H   UNL     1       8.077  11.132   3.675  1.00  0.00     0.168 HD
BRANCH   6  10
HETATM   10  C   UNL     1       5.880   9.293   4.669  1.00  0.00     0.011 C 
HETATM   11  C   UNL     1       5.456   8.299   5.321  1.00  0.00     0.013 C 
ENDBRANCH   6  10
ENDBRANCH   2   4
BRANCH   1  12
HETATM   12  C   UNL     1       7.306  14.705   2.581  1.00  0.00     0.029 C 
HETATM   13  C   UNL     1       8.240  14.724   3.574  1.00  0.00     0.007 C 
HETATM   14  C   UNL     1       8.165  15.641   4.698  1.00  0.00     0.054 C 
BRANCH  13  15
HETATM   15  C   UNL     1       9.570  14.102   3.462  1.00  0.00     0.245 C 
HETATM   16  N   UNL     1      10.581  14.643   2.836  1.00  0.00    -0.366 N 
HETATM   17  H   UNL     1      10.965  15.303   2.318  1.00  0.00     0.159 HD
ATOM     18  HN  UNL     1      11.350  13.997   3.014  1.00  0.00     0.159 HD
HETATM   19  O   UNL     1       9.636  12.941   3.841  1.00  0.00    -0.268 OA
ENDBRANCH  13  15
ENDBRANCH   1  12
TORSDOF 4
ENDMDL
MODEL 5
REMARK VINA RESULT:    -5.227      2.157      2.432
REMARK INTER + INTRA:          -6.764
REMARK INTER:                  -6.077
REMARK INTRA:                  -0.686
REMARK UNBOUND:                -0.314
REMARK  4 active torsions:
REMARK  status: ('A' for Active; 'I' for Inactive)
REMARK       I    between atoms: C_3  and  N_10 
REMARK    1  A    between atoms: C_3  and  C_16 
REMARK    2  A    between atoms: C_4  and  C_8 
REMARK    3  A    between atoms: C_5  and  C_7 
REMARK    4  A    between atoms: N_12  and  C_14 
ROOT
HETATM    1  C   UNL     1       9.826   0.162  21.418  1.00  0.00     0.090 C 
HETATM    2  N   UNL     1      10.157  -0.899  21.975  1.00  0.00    -0.350 N 
ATOM      3  HN  UNL     1      11.159  -1.089  21.976  1.00  0.00     0.166 HD
ENDROOT
BRANCH   2   4
HETATM    4  C   UNL     1       9.481  -1.736  22.513  1.00  0.00     0.134 A 
HETATM    5  C   UNL     1       8.685  -2.966  23.256  1.00  0.00     0.096 A 
HETATM    6  C   UNL     1       8.121  -3.876  24.111  1.00  0.00     0.040 C 
HETATM    7  N   UNL     1       8.641  -2.630  22.128  1.00  0.00    -0.336 N 
HETATM    8 BR   UNL     1       8.355  -4.525  26.041  1.00  0.00    -0.049 Br
HETATM    9  H   UNL     1       8.397  -2.878  21.191  1.00  0.00     0.168 HD
BRANCH   6  10
HETATM   10  C   UNL     1       7.162  -4.507  23.430  1.00  0.00     0.011 C 
HETATM   11  C   UNL     1       7.251  -5.638  22.878  1.00  0.00     0.013 C 
ENDBRANCH   6  10
ENDBRANCH   2   4
BRANCH   1  12
HETATM   12  C   UNL     1       8.764   1.024  21.731  1.00  0.00     0.029 C 
HETATM   13  C   UNL     1       7.620   1.039  20.988  1.00  0.00     0.007 C 
HETATM   14  C   UNL     1       6.475   1.862  21.337  1.00  0.00     0.054 C 
BRANCH  13  15
HETATM   15  C   UNL     1       7.274   0.011  19.993  1.00  0.00     0.245 C 
HETATM   16  N   UNL     1       7.453   0.148  18.706  1.00  0.00    -0.366 N 
HETATM   17  H   UNL     1       7.694   0.636  17.960  1.00  0.00     0.159 HD
ATOM     18  HN  UNL     1       7.184  -0.759  18.326  1.00  0.00     0.159 HD
HETATM   19  O   UNL     1       6.630  -0.936  20.423  1.00  0.00    -0.268 OA
ENDBRANCH  13  15
ENDBRANCH   1  12
TORSDOF 4
ENDMDL
MODEL 6
REMARK VINA RESULT:    -5.205     21.095     22.110
REMARK INTER + INTRA:          -6.736
REMARK INTER:                  -6.582
REMARK INTRA:                  -0.155
REMARK UNBOUND:                -0.314
REMARK  4 active torsions:
REMARK  status: ('A' for Active; 'I' for Inactive)
REMARK       I    between atoms: C_3  and  N_10 
REMARK    1  A    between atoms: C_3  and  C_16 
REMARK    2  A    between atoms: C_4  and  C_8 
REMARK    3  A    between atoms: C_5  and  C_7 
REMARK    4  A    between atoms: N_12  and  C_14 
ROOT
HETATM    1  C   UNL     1       0.368 -16.387   8.616  1.00  0.00     0.090 C 
HETATM    2  N   UNL     1       1.473 -16.945   8.727  1.00  0.00    -0.350 N 
ATOM      3  HN  UNL     1       2.241 -16.329   8.992  1.00  0.00     0.166 HD
ENDROOT
BRANCH   2   4
HETATM    4  C   UNL     1       1.779 -18.099   8.572  1.00  0.00     0.134 A 
HETATM    5  C   UNL     1       2.223 -19.679   8.511  1.00  0.00     0.096 A 
HETATM    6  C   UNL     1       2.327 -21.045   8.536  1.00  0.00     0.040 C 
HETATM    7  N   UNL     1       2.820 -18.728   8.156  1.00  0.00    -0.336 N 
HETATM    8 BR   UNL     1       1.323 -22.651   9.318  1.00  0.00    -0.049 Br
HETATM    9  H   UNL     1       3.708 -18.345   7.904  1.00  0.00     0.168 HD
BRANCH   6  10
HETATM   10  C   UNL     1       3.430 -21.363   7.854  1.00  0.00     0.011 C 
HETATM   11  C   UNL     1       3.757 -22.513   7.447  1.00  0.00     0.013 C 
ENDBRANCH   6  10
ENDBRANCH   2   4
BRANCH   1  12
HETATM   12  C   UNL     1      -0.908 -16.905   8.885  1.00  0.00     0.029 C 
HETATM   13  C   UNL     1      -1.297 -17.206  10.157  1.00  0.00     0.007 C 
HETATM   14  C   UNL     1      -2.637 -17.667  10.474  1.00  0.00     0.054 C 
BRANCH  13  15
HETATM   15  C   UNL     1      -0.562 -16.784  11.362  1.00  0.00     0.245 C 
HETATM   16  N   UNL     1      -0.924 -15.790  12.128  1.00  0.00    -0.366 N 
HETATM   17  H   UNL     1      -1.467 -15.074  12.339  1.00  0.00     0.159 HD
ATOM     18  HN  UNL     1      -0.253 -15.820  12.896  1.00  0.00     0.159 HD
HETATM   19  O   UNL     1       0.530 -17.311  11.518  1.00  0.00    -0.268 OA
ENDBRANCH  13  15
ENDBRANCH   1  12
TORSDOF 4
ENDMDL
MODEL 7
REMARK VINA RESULT:    -5.010      3.758      5.225
REMARK INTER + INTRA:          -6.496
REMARK INTER:                  -6.134
REMARK INTRA:                  -0.362
REMARK UNBOUND:                -0.314
REMARK  4 active torsions:
REMARK  status: ('A' for Active; 'I' for Inactive)
REMARK       I    between atoms: C_3  and  N_10 
REMARK    1  A    between atoms: C_3  and  C_16 
REMARK    2  A    between atoms: C_4  and  C_8 
REMARK    3  A    between atoms: C_5  and  C_7 
REMARK    4  A    between atoms: N_12  and  C_14 
ROOT
HETATM    1  C   UNL     1       9.916  -0.022  22.016  1.00  0.00     0.090 C 
HETATM    2  N   UNL     1       8.973  -0.767  21.701  1.00  0.00    -0.350 N 
ATOM      3  HN  UNL     1       8.410  -0.438  20.916  1.00  0.00     0.166 HD
ENDROOT
BRANCH   2   4
HETATM    4  C   UNL     1       8.619  -1.814  22.176  1.00  0.00     0.134 A 
HETATM    5  C   UNL     1       7.995  -3.210  22.776  1.00  0.00     0.096 A 
HETATM    6  C   UNL     1       7.511  -4.470  23.013  1.00  0.00     0.040 C 
HETATM    7  N   UNL     1       8.327  -2.240  23.353  1.00  0.00    -0.336 N 
HETATM    8 BR   UNL     1       6.794  -6.069  21.951  1.00  0.00    -0.049 Br
HETATM    9  H   UNL     1       8.271  -1.711  24.200  1.00  0.00     0.168 HD
BRANCH   6  10
HETATM   10  C   UNL     1       7.513  -4.643  24.337  1.00  0.00     0.011 C 
HETATM   11  C   UNL     1       6.533  -4.998  25.050  1.00  0.00     0.013 C 
ENDBRANCH   6  10
ENDBRANCH   2   4
BRANCH   1  12
HETATM   12  C   UNL     1      11.173  -0.369  22.535  1.00  0.00     0.029 C 
HETATM   13  C   UNL     1      11.627   0.159  23.707  1.00  0.00     0.007 C 
HETATM   14  C   UNL     1      12.888  -0.242  24.307  1.00  0.00     0.054 C 
BRANCH  13  15
HETATM   15  C   UNL     1      10.780   0.900  24.656  1.00  0.00     0.245 C 
HETATM   16  N   UNL     1      10.047   0.335  25.579  1.00  0.00    -0.366 N 
HETATM   17  H   UNL     1       9.697  -0.403  26.008  1.00  0.00     0.159 HD
ATOM     18  HN  UNL     1       9.658   1.124  26.095  1.00  0.00     0.159 HD
HETATM   19  O   UNL     1      10.652   2.094  24.420  1.00  0.00    -0.268 OA
ENDBRANCH  13  15
ENDBRANCH   1  12
TORSDOF 4
ENDMDL
MODEL 8
REMARK VINA RESULT:    -4.983      3.184      3.850
REMARK INTER + INTRA:          -6.462
REMARK INTER:                  -6.025
REMARK INTRA:                  -0.437
REMARK UNBOUND:                -0.314
REMARK  4 active torsions:
REMARK  status: ('A' for Active; 'I' for Inactive)
REMARK       I    between atoms: C_3  and  N_10 
REMARK    1  A    between atoms: C_3  and  C_16 
REMARK    2  A    between atoms: C_4  and  C_8 
REMARK    3  A    between atoms: C_5  and  C_7 
REMARK    4  A    between atoms: N_12  and  C_14 
ROOT
HETATM    1  C   UNL     1       9.820  -0.352  24.272  1.00  0.00     0.090 C 
HETATM    2  N   UNL     1       9.732  -1.572  24.495  1.00  0.00    -0.350 N 
ATOM      3  HN  UNL     1      10.434  -1.943  25.135  1.00  0.00     0.166 HD
ENDROOT
BRANCH   2   4
HETATM    4  C   UNL     1       8.949  -2.383  24.074  1.00  0.00     0.134 A 
HETATM    5  C   UNL     1       7.959  -3.596  23.578  1.00  0.00     0.096 A 
HETATM    6  C   UNL     1       7.002  -4.563  23.410  1.00  0.00     0.040 C 
HETATM    7  N   UNL     1       8.794  -3.029  22.973  1.00  0.00    -0.336 N 
HETATM    8 BR   UNL     1       5.675  -5.630  24.551  1.00  0.00    -0.049 Br
HETATM    9  H   UNL     1       9.396  -3.032  22.174  1.00  0.00     0.168 HD
BRANCH   6  10
HETATM   10  C   UNL     1       6.987  -4.872  22.112  1.00  0.00     0.011 C 
HETATM   11  C   UNL     1       6.825  -6.022  21.615  1.00  0.00     0.013 C 
ENDBRANCH   6  10
ENDBRANCH   2   4
BRANCH   1  12
HETATM   12  C   UNL     1       8.794   0.569  24.013  1.00  0.00     0.029 C 
HETATM   13  C   UNL     1       8.740   1.258  22.837  1.00  0.00     0.007 C 
HETATM   14  C   UNL     1       7.646   2.157  22.510  1.00  0.00     0.054 C 
BRANCH  13  15
HETATM   15  C   UNL     1       9.551   0.927  21.654  1.00  0.00     0.245 C 
HETATM   16  N   UNL     1       9.395  -0.155  20.940  1.00  0.00    -0.366 N 
HETATM   17  H   UNL     1       9.003  -0.973  20.766  1.00  0.00     0.159 HD
ATOM     18  HN  UNL     1      10.053  -0.034  20.170  1.00  0.00     0.159 HD
HETATM   19  O   UNL     1      10.522   1.648  21.469  1.00  0.00    -0.268 OA
ENDBRANCH  13  15
ENDBRANCH   1  12
TORSDOF 4
ENDMDL
MODEL 9
REMARK VINA RESULT:    -4.957     22.318     23.279
REMARK INTER + INTRA:          -6.431
REMARK INTER:                  -6.187
REMARK INTRA:                  -0.245
REMARK UNBOUND:                -0.314
REMARK  4 active torsions:
REMARK  status: ('A' for Active; 'I' for Inactive)
REMARK       I    between atoms: C_3  and  N_10 
REMARK    1  A    between atoms: C_3  and  C_16 
REMARK    2  A    between atoms: C_4  and  C_8 
REMARK    3  A    between atoms: C_5  and  C_7 
REMARK    4  A    between atoms: N_12  and  C_14 
ROOT
HETATM    1  C   UNL     1       1.688 -18.385   7.573  1.00  0.00     0.090 C 
HETATM    2  N   UNL     1       2.608 -19.125   7.965  1.00  0.00    -0.350 N 
ATOM      3  HN  UNL     1       3.503 -18.658   8.108  1.00  0.00     0.166 HD
ENDROOT
BRANCH   2   4
HETATM    4  C   UNL     1       2.607 -20.304   8.202  1.00  0.00     0.134 A 
HETATM    5  C   UNL     1       2.453 -21.909   8.516  1.00  0.00     0.096 A 
HETATM    6  C   UNL     1       2.313 -23.272   8.497  1.00  0.00     0.040 C 
HETATM    7  N   UNL     1       2.715 -21.032   9.256  1.00  0.00    -0.336 N 
HETATM    8 BR   UNL     1       1.696 -24.739   7.206  1.00  0.00    -0.049 Br
HETATM    9  H   UNL     1       2.767 -20.729  10.208  1.00  0.00     0.168 HD
BRANCH   6  10
HETATM   10  C   UNL     1       2.684 -23.717   9.700  1.00  0.00     0.011 C 
HETATM   11  C   UNL     1       3.353 -24.760   9.943  1.00  0.00     0.013 C 
ENDBRANCH   6  10
ENDBRANCH   2   4
BRANCH   1  12
HETATM   12  C   UNL     1       0.316 -18.469   7.852  1.00  0.00     0.029 C 
HETATM   13  C   UNL     1      -0.211 -17.930   8.989  1.00  0.00     0.007 C 
HETATM   14  C   UNL     1      -1.637 -17.932   9.265  1.00  0.00     0.054 C 
BRANCH  13  15
HETATM   15  C   UNL     1       0.518 -17.005   9.873  1.00  0.00     0.245 C 
HETATM   16  N   UNL     1       1.030 -15.869   9.481  1.00  0.00    -0.366 N 
HETATM   17  H   UNL     1       1.237 -15.244   8.833  1.00  0.00     0.159 HD
ATOM     18  HN  UNL     1       1.388 -15.455  10.341  1.00  0.00     0.159 HD
HETATM   19  O   UNL     1       0.783 -17.445  10.983  1.00  0.00    -0.268 OA
ENDBRANCH  13  15
ENDBRANCH   1  12
TORSDOF 4
ENDMDL
