stable:False satoms:21 tatoms:24 sratio:0.875
  -OEChem-07092417373D

 24 24  0     0  0  0  0  0  0999 V2000
    8.2748   -4.3502   26.0742 C   0  0  0  0  0  0  0  0  0  0  0  0
    7.2233   -4.4293   26.1648 H   0  0  0  0  0  0  0  0  0  0  0  0
    8.7164   -5.3441   25.9571 H   0  0  0  0  0  0  0  0  0  0  0  0
    8.7001   -3.8654   26.9714 H   0  0  0  0  0  0  0  0  0  0  0  0
    8.5525   -3.5453   24.9219 N   0  0  0  0  0  0  0  0  0  0  0  0
    9.5665   -3.0642   24.4257 N   0  0  0  0  0  0  0  0  0  0  0  0
    9.2971   -1.3418   23.0015 N   0  3  0  0  0  0  0  0  0  0  0  0
   10.0947   -2.0270   23.6497 C   0  0  0  0  0  0  0  0  0  0  0  0
   12.1837   -0.6218   23.5235 C   0  0  0  0  0  0  0  0  0  0  0  0
   12.0042   -0.1226   24.4662 H   0  0  0  0  0  0  0  0  0  0  0  0
   12.2185    0.1305   22.7608 H   0  0  0  0  0  0  0  0  0  0  0  0
   13.1678   -1.1069   23.3886 H   0  0  0  0  0  0  0  0  0  0  0  0
   11.3405   -1.7495   23.3262 O   0  0  0  0  0  0  0  0  0  0  0  0
    9.7400   -0.4281   22.3537 N   0  0  0  0  0  0  0  0  0  0  0  0
    8.9633    0.1474   21.3829 C   0  0  0  0  0  0  0  0  0  0  0  0
    9.3641    1.1897   20.9000 O   0  0  0  0  0  0  0  0  0  0  0  0
    7.7972   -0.5419   21.1038 N   0  0  0  0  0  0  0  0  0  0  0  0
    6.9620   -0.0173   20.1895 C   0  0  0  0  0  0  0  0  0  0  0  0
    7.1833   -0.1478   18.8813 O   0  0  0  0  0  0  0  0  0  0  0  0
    6.5678    0.5776   17.9760 N   0  0  0  0  0  0  0  0  0  0  0  0
    5.4549    1.0143   18.2754 N   0  0  0  0  0  0  0  0  0  0  0  0
    5.0281    1.0626   19.5189 N   0  0  0  0  0  0  0  0  0  0  0  0
    5.7486    0.6120   20.5166 C   0  0  0  0  0  0  0  0  0  0  0  0
    5.4345    0.6790   21.5669 H   0  0  0  0  0  0  0  0  0  0  0  0
 20 21  1  0  0  0  0
 19 20  1  0  0  0  0
 21 22  2  0  0  0  0
 18 19  1  0  0  0  0
 22 23  1  0  0  0  0
 18 23  2  0  0  0  0
 17 18  1  0  0  0  0
 23 24  1  0  0  0  0
 15 16  2  0  0  0  0
 15 17  1  0  0  0  0
 14 15  1  0  0  0  0
  7 14  2  0  0  0  0
  9 11  1  0  0  0  0
  7  8  2  0  0  0  0
  9 13  1  0  0  0  0
  8 13  1  0  0  0  0
  9 12  1  0  0  0  0
  9 10  1  0  0  0  0
  6  8  1  0  0  0  0
  5  6  2  0  0  0  0
  1  5  1  0  0  0  0
  1  3  1  0  0  0  0
  1  2  1  0  0  0  0
  1  4  1  0  0  0  0
M  CHG  1   7   1
M  END
> <Shapegauss>
-200.502792

$$$$
