REMARK  5 active torsions:
REMARK  status: ('A' for Active; 'I' for Inactive)
REMARK    1  A    between atoms: N_2  and  N_4 
REMARK    2  A    between atoms: N_4  and  C_8 
REMARK    3  A    between atoms: N_6  and  C_8 
REMARK    4  A    between atoms: C_8  and  O_10 
REMARK       I    between atoms: N_11  and  C_13 
REMARK       I    between atoms: C_13  and  N_15 
REMARK    5  A    between atoms: N_15  and  C_17 
ROOT
HETATM    1  N   UNL     1       9.297  -1.342  23.002  1.00  0.00    -0.260 N 
ATOM      2  HN  UNL     1       8.297  -1.543  23.015  1.00  0.00     0.190 HD
HETATM    3  N   UNL     1       9.740  -0.428  22.354  1.00  0.00    -0.248 N 
ATOM      4  HN  UNL     1      10.685  -0.085  22.527  1.00  0.00     0.192 HD
HETATM    5  C   UNL     1       8.963   0.147  21.383  1.00  0.00     0.341 C 
HETATM    6  O   UNL     1       9.364   1.190  20.900  1.00  0.00    -0.245 OA
HETATM    7  N   UNL     1       7.797  -0.542  21.104  1.00  0.00    -0.285 N 
ATOM      8  HN  UNL     1       7.577  -1.419  21.576  1.00  0.00     0.172 HD
ENDROOT
BRANCH   7   9
HETATM    9  C   UNL     1       6.962  -0.017  20.189  1.00  0.00     0.193 C 
HETATM   10  O   UNL     1       7.183  -0.148  18.881  1.00  0.00    -0.202 OA
HETATM   11  N   UNL     1       6.568   0.578  17.976  1.00  0.00    -0.185 N 
HETATM   12  N   UNL     1       5.455   1.014  18.275  1.00  0.00    -0.223 N 
ATOM     13  HN  UNL     1       6.992   0.772  17.069  1.00  0.00     0.218 HD
HETATM   14  N   UNL     1       5.028   1.063  19.519  1.00  0.00    -0.292 N 
ATOM     15  HN  UNL     1       4.842   1.349  17.531  1.00  0.00     0.210 HD
HETATM   16  C   UNL     1       5.749   0.612  20.517  1.00  0.00     0.167 C 
ATOM     17  HN  UNL     1       4.110   1.463  19.712  1.00  0.00     0.187 HD
ENDBRANCH   7   9
BRANCH   1  18
HETATM   18  C   UNL     1      10.095  -2.027  23.650  1.00  0.00     0.253 C 
BRANCH  18  19
HETATM   19  N   UNL     1       9.566  -3.064  24.426  1.00  0.00    -0.269 N 
ATOM     20  HN  UNL     1      10.344  -3.670  24.687  1.00  0.00     0.190 HD
BRANCH  19  21
HETATM   21  N   UNL     1       8.553  -3.545  24.922  1.00  0.00    -0.338 N 
HETATM   22  C   UNL     1       8.275  -4.350  26.074  1.00  0.00     0.167 C 
ATOM     23  HN  UNL     1       7.712  -3.319  24.390  1.00  0.00     0.179 HD
ENDBRANCH  19  21
ENDBRANCH  18  19
BRANCH  18  24
HETATM   24  O   UNL     1      11.341  -1.750  23.326  1.00  0.00    -0.325 OA
HETATM   25  C   UNL     1      12.184  -0.622  23.523  1.00  0.00     0.213 C 
ENDBRANCH  18  24
ENDBRANCH   1  18
TORSDOF 5
