stable:False satoms:12 tatoms:24 sratio:0.5
  -OEChem-08052419193D

 29 32  0     1  0  0  0  0  0999 V2000
    9.7547    1.8490   22.1077 C   0  0  0  0  0  0  0  0  0  0  0  0
   11.6675    0.7130   23.4392 O   0  0  0  0  0  0  0  0  0  0  0  0
   11.5871   -0.8173   23.1618 O   0  0  0  0  0  0  0  0  0  0  0  0
   10.7154    2.4405   21.4147 O   0  0  0  0  0  0  0  0  0  0  0  0
    8.3877   -2.0078   25.2980 C   0  0  0  0  0  0  0  0  0  0  0  0
    9.8073   -2.3908   22.0133 O   0  0  0  0  0  0  0  0  0  0  0  0
    9.2293   -1.9474   22.9980 C   0  0  0  0  0  0  0  0  0  0  0  0
    9.9322    0.2988   21.8307 N   0  3  2  0  0  0  0  0  0  0  0  0
    9.0513   -0.6091   20.1992 H   0  0  0  0  0  0  0  0  0  0  0  0
    5.6434   -3.4304   21.5882 O   0  0  0  0  0  0  0  0  0  0  0  0
    6.4953   -2.8689   22.2406 C   0  0  0  0  0  0  0  0  0  0  0  0
    7.9514    0.3229   21.1760 H   0  0  0  0  0  0  0  0  0  0  0  0
    8.8410   -0.2846   21.2074 C   0  0  0  0  0  0  0  0  0  0  0  0
    8.5510   -1.6346   21.9969 C   0  0  1  0  0  0  0  0  0  0  0  0
    6.7539   -3.3382   23.7340 C   0  0  3  0  0  0  0  0  0  0  0  0
    9.3569   -1.8909   24.3452 N   0  0  0  0  0  0  0  0  0  0  0  0
    7.1676   -1.8772   21.7694 N   0  0  0  0  0  0  0  0  0  0  0  0
    8.7236   -2.6093   26.1403 H   0  0  0  0  0  0  0  0  0  0  0  0
    6.1478   -4.8521   24.1284 Cl  0  0  0  0  0  0  0  0  0  0  0  0
    7.1951   -2.7092   24.7800 O   0  0  0  0  0  0  0  0  0  0  0  0
   10.9122    0.0066   22.9234 C   0  0  0  0  0  0  0  0  0  0  0  0
    8.0130   -1.0646   25.6889 H   0  0  0  0  0  0  0  0  0  0  0  0
    9.1029    1.9859   23.3380 O   0  0  0  0  0  0  0  0  0  0  0  0
    8.5123    2.1887   22.1805 O   0  0  0  0  0  0  0  0  0  0  0  0
   10.6634    3.3808   21.5394 H   0  0  0  0  0  0  0  0  0  0  0  0
    7.7447   -3.7472   23.4867 H   0  0  0  0  0  0  0  0  0  0  0  0
    6.6762   -1.2224   21.1952 H   0  0  0  0  0  0  0  0  0  0  0  0
   10.1823   -0.1029   23.7391 H   0  0  0  0  0  0  0  0  0  0  0  0
   10.5646    0.3540   21.0580 H   0  0  0  0  0  0  0  0  0  0  0  0
 15 19  1  0  0  0  0
  5 18  1  0  0  0  0
 15 20  1  0  0  0  0
 11 15  1  0  0  0  0
  5 20  1  0  0  0  0
  5 22  1  0  0  0  0
  5 16  1  0  0  0  0
 10 11  2  0  0  0  0
 11 17  1  0  0  0  0
  7 16  2  3  0  0  0
  6  7  1  0  0  0  0
  7 14  1  0  0  0  0
 14 17  1  0  0  0  0
  6 14  1  0  0  0  0
 13 14  1  0  0  0  0
  3 21  1  0  0  0  0
  2  3  1  0  0  0  0
  2 21  1  0  0  0  0
  8 21  1  0  0  0  0
 12 13  1  0  0  0  0
  9 13  1  0  0  0  0
  8 13  1  0  0  0  0
  1  8  1  0  0  0  0
 23 24  1  0  0  0  0
  1 23  1  0  0  0  0
  1 24  1  0  0  0  0
  1  4  1  0  0  0  0
  4 25  1  0  0  0  0
 15 26  1  0  0  0  0
 17 27  1  0  0  0  0
 21 28  1  0  0  0  0
  8 29  1  0  0  0  0
M  CHG  1   8   1
M  END
> <Chemgauss4>
-5.962212

$$$$
