stable:False satoms:12 tatoms:24 sratio:0.5
  -OEChem-08052419193D

 29 32  0     1  0  0  0  0  0999 V2000
   -9.7749    1.7884  -22.2744 C   0  0  0  0  0  0  0  0  0  0  0  0
  -11.6877    0.6523  -23.6058 O   0  0  0  0  0  0  0  0  0  0  0  0
  -11.6074   -0.8780  -23.3285 O   0  0  0  0  0  0  0  0  0  0  0  0
  -10.7356    2.3798  -21.5813 O   0  0  0  0  0  0  0  0  0  0  0  0
   -8.4079   -2.0684  -25.4647 C   0  0  0  0  0  0  0  0  0  0  0  0
   -9.8275   -2.4515  -22.1799 O   0  0  0  0  0  0  0  0  0  0  0  0
   -9.2495   -2.0081  -23.1647 C   0  0  0  0  0  0  0  0  0  0  0  0
   -9.9525    0.2381  -21.9974 N   0  3  2  0  0  0  0  0  0  0  0  0
   -9.0715   -0.6697  -20.3659 H   0  0  0  0  0  0  0  0  0  0  0  0
   -5.6636   -3.4911  -21.7548 O   0  0  0  0  0  0  0  0  0  0  0  0
   -6.5156   -2.9296  -22.4073 C   0  0  0  0  0  0  0  0  0  0  0  0
   -7.9716    0.2623  -21.3427 H   0  0  0  0  0  0  0  0  0  0  0  0
   -8.8612   -0.3453  -21.3741 C   0  0  0  0  0  0  0  0  0  0  0  0
   -8.5712   -1.6952  -22.1636 C   0  0  1  0  0  0  0  0  0  0  0  0
   -6.7742   -3.3988  -23.9006 C   0  0  3  0  0  0  0  0  0  0  0  0
   -9.3771   -1.9516  -24.5119 N   0  0  0  0  0  0  0  0  0  0  0  0
   -7.1879   -1.9379  -21.9361 N   0  0  0  0  0  0  0  0  0  0  0  0
   -8.7438   -2.6700  -26.3070 H   0  0  0  0  0  0  0  0  0  0  0  0
   -6.1680   -4.9127  -24.2951 Cl  0  0  0  0  0  0  0  0  0  0  0  0
   -7.2153   -2.7698  -24.9467 O   0  0  0  0  0  0  0  0  0  0  0  0
  -10.9324   -0.0540  -23.0901 C   0  0  0  0  0  0  0  0  0  0  0  0
   -8.0333   -1.1253  -25.8556 H   0  0  0  0  0  0  0  0  0  0  0  0
   -9.1232    1.9253  -23.5047 O   0  0  0  0  0  0  0  0  0  0  0  0
   -8.5325    2.1280  -22.3471 O   0  0  0  0  0  0  0  0  0  0  0  0
  -10.6837    3.3202  -21.7061 H   0  0  0  0  0  0  0  0  0  0  0  0
   -7.7649   -3.8078  -23.6534 H   0  0  0  0  0  0  0  0  0  0  0  0
   -6.6964   -1.2831  -21.3619 H   0  0  0  0  0  0  0  0  0  0  0  0
  -10.2025   -0.1635  -23.9057 H   0  0  0  0  0  0  0  0  0  0  0  0
  -10.5849    0.2934  -21.2247 H   0  0  0  0  0  0  0  0  0  0  0  0
 15 19  1  0  0  0  0
  5 18  1  0  0  0  0
 15 20  1  0  0  0  0
 11 15  1  0  0  0  0
  5 20  1  0  0  0  0
  5 22  1  0  0  0  0
  5 16  1  0  0  0  0
 10 11  2  0  0  0  0
 11 17  1  0  0  0  0
  7 16  2  3  0  0  0
  6  7  1  0  0  0  0
  7 14  1  0  0  0  0
 14 17  1  0  0  0  0
  6 14  1  0  0  0  0
 13 14  1  0  0  0  0
  3 21  1  0  0  0  0
  2  3  1  0  0  0  0
  2 21  1  0  0  0  0
  8 21  1  0  0  0  0
 12 13  1  0  0  0  0
  9 13  1  0  0  0  0
  8 13  1  0  0  0  0
  1  8  1  0  0  0  0
 23 24  1  0  0  0  0
  1 23  1  0  0  0  0
  1 24  1  0  0  0  0
  1  4  1  0  0  0  0
  4 25  1  0  0  0  0
 15 26  1  0  0  0  0
 17 27  1  0  0  0  0
 21 28  1  0  0  0  0
  8 29  1  0  0  0  0
M  CHG  1   8   1
M  END
> <Chemgauss4>
-5.864891

$$$$
