stable:False satoms:19 tatoms:24 sratio:0.7916666666666666
  -OEChem-08062402123D

 29 28  0     1  0  0  0  0  0999 V2000
   13.0844    4.6527   24.8746 O   0  5  0  0  0  0  0  0  0  0  0  0
   12.8236    6.6863   24.1286 O   0  5  0  0  0  0  0  0  0  0  0  0
   10.1999    6.7931   24.4734 Cl  0  0  0  0  0  0  0  0  0  0  0  0
   12.3289    5.5755   24.2732 N   0  0  0  0  0  0  0  0  0  0  0  0
   11.0021    5.2860   24.0745 C   0  0  3  0  0  0  0  0  0  0  0  0
   10.3083    4.1100   23.7272 C   0  0  0  0  0  0  0  0  0  0  0  0
    8.5022    3.1737   24.6101 H   0  0  0  0  0  0  0  0  0  0  0  0
    9.2343    2.3536   24.5726 C   0  0  0  0  0  0  0  0  0  0  0  0
    8.8178    1.5167   23.9927 H   0  0  0  0  0  0  0  0  0  0  0  0
    8.8758    4.0080   23.0832 C   0  0  0  0  0  0  0  0  0  0  0  0
    8.1373    3.9330   22.4368 O   0  0  0  0  0  0  0  0  0  0  0  0
   10.4428    2.8171   23.9449 C   0  0  0  0  0  0  0  0  0  0  0  0
   11.5153    1.8254   23.8247 C   0  0  3  0  0  0  0  0  0  0  0  0
   11.3131    0.4527   23.8089 C   0  0  0  0  0  0  0  0  0  0  0  0
   10.2835   -0.1473   23.6212 O   0  0  0  0  0  0  0  0  0  0  0  0
   12.1917    2.0159   24.6709 H   0  0  0  0  0  0  0  0  0  0  0  0
   14.5543   -1.9323   23.4812 H   0  0  0  0  0  0  0  0  0  0  0  0
   12.7357   -1.2007   23.0173 O   0  0  0  0  0  0  0  0  0  0  0  0
   13.5774   -2.8867   22.2958 H   0  0  0  0  0  0  0  0  0  0  0  0
   13.5760   -2.3383   23.2270 C   0  0  0  0  0  0  0  0  0  0  0  0
   13.2382   -2.9585   24.0434 H   0  0  0  0  0  0  0  0  0  0  0  0
   12.6126   -0.4052   24.0712 C   0  0  0  0  0  0  0  0  0  0  0  0
   13.3022   -0.3071   25.0374 O   0  0  0  0  0  0  0  0  0  0  0  0
   11.0724    5.5827   23.0177 H   0  0  0  0  0  0  0  0  0  0  0  0
    9.4587    2.0155   25.5950 H   0  0  0  0  0  0  0  0  0  0  0  0
    8.4964    4.9277   23.5525 H   0  0  0  0  0  0  0  0  0  0  0  0
    8.5666    3.1373   23.6800 H   0  0  0  0  0  0  0  0  0  0  0  0
    7.3084    3.9336   22.9010 H   0  0  0  0  0  0  0  0  0  0  0  0
   12.0319    2.0600   22.8823 H   0  0  0  0  0  0  0  0  0  0  0  0
 19 20  1  0  0  0  0
 20 21  1  0  0  0  0
 17 20  1  0  0  0  0
 18 20  1  0  0  0  0
 18 22  1  0  0  0  0
 14 22  1  0  0  0  0
 22 23  2  0  0  0  0
 14 15  2  0  0  0  0
 13 14  1  0  0  0  0
 13 16  1  0  0  0  0
 12 13  1  0  0  0  0
  8 12  1  0  0  0  0
  6 12  2  3  0  0  0
 10 11  1  0  0  0  0
  7  8  1  0  0  0  0
  8  9  1  0  0  0  0
  6 10  1  0  0  0  0
  5  6  1  0  0  0  0
  1  4  1  0  0  0  0
  4  5  1  0  0  0  0
  3  5  1  0  0  0  0
  2  4  1  0  0  0  0
  5 24  1  0  0  0  0
  8 25  1  0  0  0  0
 10 26  1  0  0  0  0
 10 27  1  0  0  0  0
 11 28  1  0  0  0  0
 13 29  1  0  0  0  0
M  CHG  2   1  -1   2  -1
M  END
> <Chemgauss4>
-5.855111

$$$$
