stable:False satoms:19 tatoms:24 sratio:0.7916666666666666
  -OEChem-08062402113D

 29 28  0     1  0  0  0  0  0999 V2000
  -13.0104    4.7213  -25.1287 O   0  5  0  0  0  0  0  0  0  0  0  0
  -12.7162    6.7553  -24.3962 O   0  5  0  0  0  0  0  0  0  0  0  0
  -10.0930    6.8217  -24.7548 Cl  0  0  0  0  0  0  0  0  0  0  0  0
  -12.2385    5.6365  -24.5366 N   0  0  0  0  0  0  0  0  0  0  0  0
  -10.9150    5.3288  -24.3429 C   0  0  3  0  0  0  0  0  0  0  0  0
  -10.2366    4.1449  -23.9920 C   0  0  0  0  0  0  0  0  0  0  0  0
   -8.4488    3.1772  -24.8782 H   0  0  0  0  0  0  0  0  0  0  0  0
   -9.1926    2.3681  -24.8321 C   0  0  0  0  0  0  0  0  0  0  0  0
   -8.7854    1.5287  -24.2493 H   0  0  0  0  0  0  0  0  0  0  0  0
   -8.8025    4.0259  -23.3545 C   0  0  0  0  0  0  0  0  0  0  0  0
   -8.0619    3.9440  -22.7114 O   0  0  0  0  0  0  0  0  0  0  0  0
  -10.3911    2.8529  -24.2012 C   0  0  0  0  0  0  0  0  0  0  0  0
  -11.4772    1.8777  -24.0696 C   0  0  3  0  0  0  0  0  0  0  0  0
  -11.2950    0.5023  -24.0466 C   0  0  0  0  0  0  0  0  0  0  0  0
  -10.2732   -0.1115  -23.8605 O   0  0  0  0  0  0  0  0  0  0  0  0
  -12.1551    2.0730  -24.9136 H   0  0  0  0  0  0  0  0  0  0  0  0
  -14.5688   -1.8332  -23.6884 H   0  0  0  0  0  0  0  0  0  0  0  0
  -12.7375   -1.1254  -23.2380 O   0  0  0  0  0  0  0  0  0  0  0  0
  -13.5998   -2.7947  -22.5022 H   0  0  0  0  0  0  0  0  0  0  0  0
  -13.5952   -2.2519  -23.4367 C   0  0  0  0  0  0  0  0  0  0  0  0
  -13.2707   -2.8818  -24.2510 H   0  0  0  0  0  0  0  0  0  0  0  0
  -12.6082   -0.3381  -24.2973 C   0  0  0  0  0  0  0  0  0  0  0  0
  -13.3012   -0.2357  -25.2606 O   0  0  0  0  0  0  0  0  0  0  0  0
  -10.9756    5.6329  -23.2875 H   0  0  0  0  0  0  0  0  0  0  0  0
   -9.4271    2.0272  -25.8513 H   0  0  0  0  0  0  0  0  0  0  0  0
   -8.4122    4.9372  -23.8312 H   0  0  0  0  0  0  0  0  0  0  0  0
   -8.5091    3.1473  -23.9476 H   0  0  0  0  0  0  0  0  0  0  0  0
   -7.2354    3.9298  -23.1797 H   0  0  0  0  0  0  0  0  0  0  0  0
  -11.9856    2.1254  -23.1261 H   0  0  0  0  0  0  0  0  0  0  0  0
 19 20  1  0  0  0  0
 20 21  1  0  0  0  0
 17 20  1  0  0  0  0
 18 20  1  0  0  0  0
 18 22  1  0  0  0  0
 14 22  1  0  0  0  0
 22 23  2  0  0  0  0
 14 15  2  0  0  0  0
 13 14  1  0  0  0  0
 13 16  1  0  0  0  0
 12 13  1  0  0  0  0
  8 12  1  0  0  0  0
  6 12  2  3  0  0  0
 10 11  1  0  0  0  0
  7  8  1  0  0  0  0
  8  9  1  0  0  0  0
  6 10  1  0  0  0  0
  5  6  1  0  0  0  0
  1  4  1  0  0  0  0
  4  5  1  0  0  0  0
  3  5  1  0  0  0  0
  2  4  1  0  0  0  0
  5 24  1  0  0  0  0
  8 25  1  0  0  0  0
 10 26  1  0  0  0  0
 10 27  1  0  0  0  0
 11 28  1  0  0  0  0
 13 29  1  0  0  0  0
M  CHG  2   1  -1   2  -1
M  END
> <Chemgauss4>
-5.664140

$$$$
