REMARK  1 active torsions:
REMARK  status: ('A' for Active; 'I' for Inactive)
REMARK    1  A    between atoms: O_6  and  N_17 
ROOT
HETATM    1  H   UNL     1       7.993  -2.440  21.055  1.00  0.00     0.133 HD
HETATM    2  O   UNL     1       9.711  -3.743  23.905  1.00  0.00    -0.265 OA
HETATM    3  C   UNL     1       7.708  -0.004  23.914  1.00  0.00     0.034 C 
HETATM    4  C   UNL     1       9.426  -2.796  23.192  1.00  0.00     0.278 C 
HETATM    5  C   UNL     1       6.863   0.494  21.352  1.00  0.00     0.140 C 
HETATM    6  C   UNL     1       9.787  -1.552  21.120  1.00  0.00     0.074 C 
HETATM    7  C   UNL     1      10.313  -2.153  22.206  1.00  0.00     0.019 C 
HETATM    8  C   UNL     1      11.762  -2.406  22.381  1.00  0.00     0.055 C 
HETATM    9  C   UNL     1       7.690  -0.607  21.602  1.00  0.00     0.080 C 
HETATM   10  N   UNL     1       8.416  -1.519  20.815  1.00  0.00    -0.264 NA
HETATM   11  C   UNL     1       7.828  -0.961  22.917  1.00  0.00     0.090 C 
HETATM   12  C   UNL     1       7.460   1.264  23.464  1.00  0.00     0.005 C 
HETATM   13  C   UNL     1       6.793   1.490  22.269  1.00  0.00     0.044 C 
HETATM   14  F   UNL     1       6.031   0.602  20.270  1.00  0.00    -0.204 F 
HETATM   15  N   UNL     1       8.146  -2.242  23.249  1.00  0.00    -0.186 N 
ENDROOT
BRANCH  15  16
HETATM   16  O   UNL     1       7.379  -2.788  24.240  1.00  0.00    -0.279 OA
HETATM   17  H   UNL     1       7.681  -3.632  24.605  1.00  0.00     0.245 HD
ENDBRANCH  15  16
TORSDOF 1
