MODEL 1
REMARK VINA RESULT:    -6.581      0.000      0.000
REMARK INTER + INTRA:          -6.774
REMARK INTER:                  -6.774
REMARK INTRA:                   0.000
REMARK UNBOUND:                 0.000
REMARK  1 active torsions:
REMARK  status: ('A' for Active; 'I' for Inactive)
REMARK    1  A    between atoms: O_6  and  N_17 
ROOT
HETATM    1  H   UNL     1      10.587  -1.120  20.852  1.00  0.00     0.133 HD
HETATM    2  O   UNL     1       8.095   1.437  21.002  1.00  0.00    -0.265 OA
HETATM    3  C   UNL     1      11.260   1.116  23.808  1.00  0.00     0.034 C 
HETATM    4  C   UNL     1       8.804   0.626  21.573  1.00  0.00     0.278 C 
HETATM    5  C   UNL     1      12.617  -1.206  23.269  1.00  0.00     0.140 C 
HETATM    6  C   UNL     1       9.235  -1.692  22.214  1.00  0.00     0.074 C 
HETATM    7  C   UNL     1       8.367  -0.663  22.138  1.00  0.00     0.019 C 
HETATM    8  C   UNL     1       6.914  -0.797  22.391  1.00  0.00     0.055 C 
HETATM    9  C   UNL     1      11.427  -0.931  22.587  1.00  0.00     0.080 C 
HETATM   10  N   UNL     1      10.559  -1.652  21.747  1.00  0.00    -0.264 NA
HETATM   11  C   UNL     1      10.968   0.355  22.685  1.00  0.00     0.090 C 
HETATM   12  C   UNL     1      12.006   0.474  24.757  1.00  0.00     0.005 C 
HETATM   13  C   UNL     1      12.889  -0.541  24.419  1.00  0.00     0.044 C 
HETATM   14  F   UNL     1      13.593  -2.048  22.807  1.00  0.00    -0.204 F 
HETATM   15  N   UNL     1      10.171   0.871  21.711  1.00  0.00    -0.186 N 
ENDROOT
BRANCH  15  16
HETATM   16  O   UNL     1      10.530   2.115  21.271  1.00  0.00    -0.279 OA
HETATM   17  H   UNL     1      11.400   2.191  20.854  1.00  0.00     0.245 HD
ENDBRANCH  15  16
TORSDOF 1
ENDMDL
MODEL 2
REMARK VINA RESULT:    -6.116     22.055     23.432
REMARK INTER + INTRA:          -6.295
REMARK INTER:                  -6.295
REMARK INTRA:                   0.000
REMARK UNBOUND:                 0.000
REMARK  1 active torsions:
REMARK  status: ('A' for Active; 'I' for Inactive)
REMARK    1  A    between atoms: O_6  and  N_17 
ROOT
HETATM    1  H   UNL     1       8.513  10.579   3.265  1.00  0.00     0.133 HD
HETATM    2  O   UNL     1       5.580   9.426   1.581  1.00  0.00    -0.265 OA
HETATM    3  C   UNL     1       6.520  13.535   2.050  1.00  0.00     0.034 C 
HETATM    4  C   UNL     1       6.113  10.216   2.341  1.00  0.00     0.278 C 
HETATM    5  C   UNL     1       8.733  13.705   3.663  1.00  0.00     0.140 C 
HETATM    6  C   UNL     1       6.995  10.712   4.565  1.00  0.00     0.074 C 
HETATM    7  C   UNL     1       5.990  10.227   3.810  1.00  0.00     0.019 C 
HETATM    8  C   UNL     1       4.829   9.493   4.364  1.00  0.00     0.055 C 
HETATM    9  C   UNL     1       8.115  12.464   3.470  1.00  0.00     0.080 C 
HETATM   10  N   UNL     1       8.215  11.189   4.055  1.00  0.00    -0.264 NA
HETATM   11  C   UNL     1       7.215  12.400   2.440  1.00  0.00     0.090 C 
HETATM   12  C   UNL     1       6.808  14.661   2.774  1.00  0.00     0.005 C 
HETATM   13  C   UNL     1       8.045  14.837   3.375  1.00  0.00     0.044 C 
HETATM   14  F   UNL     1      10.038  13.864   4.043  1.00  0.00    -0.204 F 
HETATM   15  N   UNL     1       6.953  11.210   1.835  1.00  0.00    -0.186 N 
ENDROOT
BRANCH  15  16
HETATM   16  O   UNL     1       6.969  11.241   0.469  1.00  0.00    -0.279 OA
HETATM   17  H   UNL     1       7.435  11.984   0.059  1.00  0.00     0.245 HD
ENDBRANCH  15  16
TORSDOF 1
ENDMDL
MODEL 3
REMARK VINA RESULT:    -5.822     23.802     25.219
REMARK INTER + INTRA:          -5.992
REMARK INTER:                  -5.992
REMARK INTRA:                   0.000
REMARK UNBOUND:                 0.000
REMARK  1 active torsions:
REMARK  status: ('A' for Active; 'I' for Inactive)
REMARK    1  A    between atoms: O_6  and  N_17 
ROOT
HETATM    1  H   UNL     1       8.678  15.966   1.189  1.00  0.00     0.133 HD
HETATM    2  O   UNL     1      10.756  16.845   3.961  1.00  0.00    -0.265 OA
HETATM    3  C   UNL     1       8.729  13.131   3.669  1.00  0.00     0.034 C 
HETATM    4  C   UNL     1       9.737  16.329   3.533  1.00  0.00     0.278 C 
HETATM    5  C   UNL     1       7.113  13.236   1.455  1.00  0.00     0.140 C 
HETATM    6  C   UNL     1       7.469  16.583   2.661  1.00  0.00     0.074 C 
HETATM    7  C   UNL     1       8.380  16.898   3.604  1.00  0.00     0.019 C 
HETATM    8  C   UNL     1       8.179  17.964   4.613  1.00  0.00     0.055 C 
HETATM    9  C   UNL     1       7.782  14.391   1.874  1.00  0.00     0.080 C 
HETATM   10  N   UNL     1       7.724  15.759   1.553  1.00  0.00    -0.264 NA
HETATM   11  C   UNL     1       8.782  14.201   2.789  1.00  0.00     0.090 C 
HETATM   12  C   UNL     1       7.623  12.335   3.538  1.00  0.00     0.005 C 
HETATM   13  C   UNL     1       6.966  12.205   2.323  1.00  0.00     0.044 C 
HETATM   14  F   UNL     1       6.665  13.026   0.178  1.00  0.00    -0.204 F 
HETATM   15  N   UNL     1       9.802  15.097   2.880  1.00  0.00    -0.186 N 
ENDROOT
BRANCH  15  16
HETATM   16  O   UNL     1      11.052  14.546   2.919  1.00  0.00    -0.279 OA
HETATM   17  H   UNL     1      11.796  15.163   2.967  1.00  0.00     0.245 HD
ENDBRANCH  15  16
TORSDOF 1
ENDMDL
MODEL 4
REMARK VINA RESULT:    -5.799     23.503     24.898
REMARK INTER + INTRA:          -5.968
REMARK INTER:                  -5.968
REMARK INTRA:                   0.000
REMARK UNBOUND:                 0.000
REMARK  1 active torsions:
REMARK  status: ('A' for Active; 'I' for Inactive)
REMARK    1  A    between atoms: O_6  and  N_17 
ROOT
HETATM    1  H   UNL     1       6.677  14.389   4.383  1.00  0.00     0.133 HD
HETATM    2  O   UNL     1       8.653  11.418   4.176  1.00  0.00    -0.265 OA
HETATM    3  C   UNL     1       9.528  14.942   1.983  1.00  0.00     0.034 C 
HETATM    4  C   UNL     1       8.128  12.372   3.626  1.00  0.00     0.278 C 
HETATM    5  C   UNL     1       7.472  16.712   2.396  1.00  0.00     0.140 C 
HETATM    6  C   UNL     1       6.113  13.420   2.724  1.00  0.00     0.074 C 
HETATM    7  C   UNL     1       6.909  12.334   2.798  1.00  0.00     0.019 C 
HETATM    8  C   UNL     1       6.533  11.005   2.265  1.00  0.00     0.055 C 
HETATM    9  C   UNL     1       7.363  15.404   2.882  1.00  0.00     0.080 C 
HETATM   10  N   UNL     1       6.332  14.616   3.427  1.00  0.00    -0.264 NA
HETATM   11  C   UNL     1       8.522  14.677   2.902  1.00  0.00     0.090 C 
HETATM   12  C   UNL     1       9.245  15.948   1.099  1.00  0.00     0.005 C 
HETATM   13  C   UNL     1       8.386  16.984   1.432  1.00  0.00     0.044 C 
HETATM   14  F   UNL     1       6.774  17.779   2.893  1.00  0.00    -0.204 F 
HETATM   15  N   UNL     1       8.669  13.649   3.781  1.00  0.00    -0.186 N 
ENDROOT
BRANCH  15  16
HETATM   16  O   UNL     1       9.851  13.641   4.467  1.00  0.00    -0.279 OA
HETATM   17  H   UNL     1      10.257  12.776   4.619  1.00  0.00     0.245 HD
ENDBRANCH  15  16
TORSDOF 1
ENDMDL
MODEL 5
REMARK VINA RESULT:    -5.692     13.279     14.682
REMARK INTER + INTRA:          -5.858
REMARK INTER:                  -5.858
REMARK INTRA:                   0.000
REMARK UNBOUND:                 0.000
REMARK  1 active torsions:
REMARK  status: ('A' for Active; 'I' for Inactive)
REMARK    1  A    between atoms: O_6  and  N_17 
ROOT
HETATM    1  H   UNL     1      22.165  -0.591  17.135  1.00  0.00     0.133 HD
HETATM    2  O   UNL     1      24.166  -1.684  14.383  1.00  0.00    -0.265 OA
HETATM    3  C   UNL     1      24.612  -3.198  18.320  1.00  0.00     0.034 C 
HETATM    4  C   UNL     1      24.077  -1.368  15.557  1.00  0.00     0.278 C 
HETATM    5  C   UNL     1      22.973  -1.737  19.964  1.00  0.00     0.140 C 
HETATM    6  C   UNL     1      23.908   0.390  17.246  1.00  0.00     0.074 C 
HETATM    7  C   UNL     1      24.527  -0.097  16.152  1.00  0.00     0.019 C 
HETATM    8  C   UNL     1      25.514   0.671  15.359  1.00  0.00     0.055 C 
HETATM    9  C   UNL     1      23.137  -1.345  18.631  1.00  0.00     0.080 C 
HETATM   10  N   UNL     1      22.801  -0.212  17.867  1.00  0.00    -0.264 NA
HETATM   11  C   UNL     1      23.720  -2.268  17.806  1.00  0.00     0.090 C 
HETATM   12  C   UNL     1      24.841  -3.091  19.664  1.00  0.00     0.005 C 
HETATM   13  C   UNL     1      23.880  -2.577  20.522  1.00  0.00     0.044 C 
HETATM   14  F   UNL     1      21.895  -1.403  20.738  1.00  0.00    -0.204 F 
HETATM   15  N   UNL     1      23.475  -2.239  16.468  1.00  0.00    -0.186 N 
ENDROOT
BRANCH  15  16
HETATM   16  O   UNL     1      23.160  -3.447  15.912  1.00  0.00    -0.279 OA
HETATM   17  H   UNL     1      23.378  -4.233  16.434  1.00  0.00     0.245 HD
ENDBRANCH  15  16
TORSDOF 1
ENDMDL
MODEL 6
REMARK VINA RESULT:    -5.539     22.167     23.666
REMARK INTER + INTRA:          -5.700
REMARK INTER:                  -5.700
REMARK INTRA:                   0.000
REMARK UNBOUND:                 0.000
REMARK  1 active torsions:
REMARK  status: ('A' for Active; 'I' for Inactive)
REMARK    1  A    between atoms: O_6  and  N_17 
ROOT
HETATM    1  H   UNL     1       8.279  11.754   1.385  1.00  0.00     0.133 HD
HETATM    2  O   UNL     1       9.294  13.667   4.228  1.00  0.00    -0.265 OA
HETATM    3  C   UNL     1       6.074  10.907   4.319  1.00  0.00     0.034 C 
HETATM    4  C   UNL     1       8.403  13.196   3.542  1.00  0.00     0.278 C 
HETATM    5  C   UNL     1       5.669  10.016   1.756  1.00  0.00     0.140 C 
HETATM    6  C   UNL     1       7.031  13.314   1.523  1.00  0.00     0.074 C 
HETATM    7  C   UNL     1       7.547  13.940   2.600  1.00  0.00     0.019 C 
HETATM    8  C   UNL     1       7.490  15.406   2.801  1.00  0.00     0.055 C 
HETATM    9  C   UNL     1       6.576  11.056   1.988  1.00  0.00     0.080 C 
HETATM   10  N   UNL     1       7.280  11.973   1.187  1.00  0.00    -0.264 NA
HETATM   11  C   UNL     1       6.944  11.246   3.292  1.00  0.00     0.090 C 
HETATM   12  C   UNL     1       4.872  10.399   3.907  1.00  0.00     0.005 C 
HETATM   13  C   UNL     1       4.748   9.719   2.705  1.00  0.00     0.044 C 
HETATM   14  F   UNL     1       5.700   9.197   0.659  1.00  0.00    -0.204 F 
HETATM   15  N   UNL     1       8.139  11.826   3.587  1.00  0.00    -0.186 N 
ENDROOT
BRANCH  15  16
HETATM   16  O   UNL     1       8.875  11.179   4.540  1.00  0.00    -0.279 OA
HETATM   17  H   UNL     1       8.384  10.806   5.286  1.00  0.00     0.245 HD
ENDBRANCH  15  16
TORSDOF 1
ENDMDL
MODEL 7
REMARK VINA RESULT:    -5.450     24.288     25.741
REMARK INTER + INTRA:          -5.609
REMARK INTER:                  -5.609
REMARK INTRA:                   0.000
REMARK UNBOUND:                 0.000
REMARK  1 active torsions:
REMARK  status: ('A' for Active; 'I' for Inactive)
REMARK    1  A    between atoms: O_6  and  N_17 
ROOT
HETATM    1  H   UNL     1      11.429  17.426   3.616  1.00  0.00     0.133 HD
HETATM    2  O   UNL     1      11.187  14.198   5.129  1.00  0.00    -0.265 OA
HETATM    3  C   UNL     1       8.146  15.840   2.670  1.00  0.00     0.034 C 
HETATM    4  C   UNL     1      10.662  15.252   4.812  1.00  0.00     0.278 C 
HETATM    5  C   UNL     1       8.853  18.425   2.086  1.00  0.00     0.140 C 
HETATM    6  C   UNL     1      10.299  17.627   5.258  1.00  0.00     0.074 C 
HETATM    7  C   UNL     1      10.323  16.361   5.721  1.00  0.00     0.019 C 
HETATM    8  C   UNL     1      10.238  16.014   7.159  1.00  0.00     0.055 C 
HETATM    9  C   UNL     1       9.609  17.698   3.012  1.00  0.00     0.080 C 
HETATM   10  N   UNL     1      10.621  17.998   3.941  1.00  0.00    -0.264 NA
HETATM   11  C   UNL     1       9.384  16.348   3.034  1.00  0.00     0.090 C 
HETATM   12  C   UNL     1       7.221  16.784   2.316  1.00  0.00     0.005 C 
HETATM   13  C   UNL     1       7.603  18.003   1.775  1.00  0.00     0.044 C 
HETATM   14  F   UNL     1       9.325  19.503   1.385  1.00  0.00    -0.204 F 
HETATM   15  N   UNL     1      10.355  15.502   3.474  1.00  0.00    -0.186 N 
ENDROOT
BRANCH  15  16
HETATM   16  O   UNL     1      10.585  14.420   2.670  1.00  0.00    -0.279 OA
HETATM   17  H   UNL     1      10.374  14.527   1.731  1.00  0.00     0.245 HD
ENDBRANCH  15  16
TORSDOF 1
ENDMDL
MODEL 8
REMARK VINA RESULT:    -5.425     11.970     13.775
REMARK INTER + INTRA:          -5.583
REMARK INTER:                  -5.583
REMARK INTRA:                   0.000
REMARK UNBOUND:                 0.000
REMARK  1 active torsions:
REMARK  status: ('A' for Active; 'I' for Inactive)
REMARK    1  A    between atoms: O_6  and  N_17 
ROOT
HETATM    1  H   UNL     1      25.075  -2.662  25.635  1.00  0.00     0.133 HD
HETATM    2  O   UNL     1      24.367  -4.976  23.006  1.00  0.00    -0.265 OA
HETATM    3  C   UNL     1      21.494  -2.257  24.537  1.00  0.00     0.034 C 
HETATM    4  C   UNL     1      24.020  -4.408  24.027  1.00  0.00     0.278 C 
HETATM    5  C   UNL     1      22.613  -0.994  26.700  1.00  0.00     0.140 C 
HETATM    6  C   UNL     1      24.131  -4.223  26.461  1.00  0.00     0.074 C 
HETATM    7  C   UNL     1      23.960  -5.003  25.375  1.00  0.00     0.019 C 
HETATM    8  C   UNL     1      23.925  -6.483  25.425  1.00  0.00     0.055 C 
HETATM    9  C   UNL     1      23.293  -2.058  26.097  1.00  0.00     0.080 C 
HETATM   10  N   UNL     1      24.412  -2.848  26.417  1.00  0.00    -0.264 NA
HETATM   11  C   UNL     1      22.829  -2.440  24.867  1.00  0.00     0.090 C 
HETATM   12  C   UNL     1      20.732  -1.692  25.523  1.00  0.00     0.005 C 
HETATM   13  C   UNL     1      21.287  -0.840  26.467  1.00  0.00     0.044 C 
HETATM   14  F   UNL     1      23.217  -0.022  27.452  1.00  0.00    -0.204 F 
HETATM   15  N   UNL     1      23.661  -3.060  23.986  1.00  0.00    -0.186 N 
ENDROOT
BRANCH  15  16
HETATM   16  O   UNL     1      23.627  -2.562  22.714  1.00  0.00    -0.279 OA
HETATM   17  H   UNL     1      22.832  -2.070  22.463  1.00  0.00     0.245 HD
ENDBRANCH  15  16
TORSDOF 1
ENDMDL
MODEL 9
REMARK VINA RESULT:    -5.320     27.454     28.793
REMARK INTER + INTRA:          -5.475
REMARK INTER:                  -5.475
REMARK INTRA:                   0.000
REMARK UNBOUND:                 0.000
REMARK  1 active torsions:
REMARK  status: ('A' for Active; 'I' for Inactive)
REMARK    1  A    between atoms: O_6  and  N_17 
ROOT
HETATM    1  H   UNL     1      10.718  18.304   2.436  1.00  0.00     0.133 HD
HETATM    2  O   UNL     1       8.316  15.814   1.539  1.00  0.00    -0.265 OA
HETATM    3  C   UNL     1       8.506  19.627  -0.311  1.00  0.00     0.034 C 
HETATM    4  C   UNL     1       8.587  16.983   1.756  1.00  0.00     0.278 C 
HETATM    5  C   UNL     1      10.373  21.115   1.039  1.00  0.00     0.140 C 
HETATM    6  C   UNL     1       9.007  18.770   3.368  1.00  0.00     0.074 C 
HETATM    7  C   UNL     1       8.227  17.749   2.962  1.00  0.00     0.019 C 
HETATM    8  C   UNL     1       7.122  17.189   3.775  1.00  0.00     0.055 C 
HETATM    9  C   UNL     1       9.999  19.863   1.539  1.00  0.00     0.080 C 
HETATM   10  N   UNL     1      10.202  19.157   2.738  1.00  0.00    -0.264 NA
HETATM   11  C   UNL     1       9.300  19.063   0.677  1.00  0.00     0.090 C 
HETATM   12  C   UNL     1       8.491  20.995  -0.323  1.00  0.00     0.005 C 
HETATM   13  C   UNL     1       9.571  21.733   0.137  1.00  0.00     0.044 C 
HETATM   14  F   UNL     1      11.558  21.737   1.328  1.00  0.00    -0.204 F 
HETATM   15  N   UNL     1       9.330  17.710   0.824  1.00  0.00    -0.186 N 
ENDROOT
BRANCH  15  16
HETATM   16  O   UNL     1       9.562  17.010  -0.327  1.00  0.00    -0.279 OA
HETATM   17  H   UNL     1       9.561  17.519  -1.150  1.00  0.00     0.245 HD
ENDBRANCH  15  16
TORSDOF 1
ENDMDL
