REMARK  2 active torsions:
REMARK  status: ('A' for Active; 'I' for Inactive)
REMARK    1  A    between atoms: O_2  and  N_4 
REMARK    2  A    between atoms: N_4  and  C_10 
ROOT
HETATM    1  H   UNL     1       7.914  -3.183  22.265  1.00  0.00     0.134 HD
HETATM    2  C   UNL     1      11.584   0.052  23.309  1.00  0.00     0.072 C 
HETATM    3  N   UNL     1       9.914   0.686  21.884  1.00  0.00    -0.303 N 
ATOM      4  HN  UNL     1      10.340   1.572  22.154  1.00  0.00     0.186 HD
HETATM    5  C   UNL     1      10.283  -0.248  22.686  1.00  0.00     0.052 C 
HETATM    6  C   UNL     1       9.400  -1.283  23.054  1.00  0.00     0.101 C 
HETATM    7  C   UNL     1       8.284  -1.389  22.109  1.00  0.00     0.065 A 
HETATM    8  N   UNL     1       9.100   0.862  20.744  1.00  0.00    -0.312 N 
ATOM      9  HN  UNL     1       9.465   1.740  20.374  1.00  0.00     0.186 HD
HETATM   10  N   UNL     1       7.606  -2.383  21.741  1.00  0.00    -0.255 NA
HETATM   11  C   UNL     1       8.066   0.560  19.780  1.00  0.00     0.107 C 
HETATM   12  C   UNL     1       6.720   0.218  19.902  1.00  0.00     0.020 C 
HETATM   13  C   UNL     1       7.188  -1.156  21.465  1.00  0.00     0.037 A 
HETATM   14  C   UNL     1       6.213  -0.367  20.976  1.00  0.00     0.027 C 
ENDROOT
BRANCH   6  15
HETATM   15  N   UNL     1       9.404  -2.129  23.946  1.00  0.00    -0.264 N 
ATOM     16  HN  UNL     1      10.217  -2.001  24.549  1.00  0.00     0.194 HD
BRANCH  15  17
HETATM   17  O   UNL     1       8.665  -3.175  24.374  1.00  0.00    -0.285 OA
HETATM   18  C   UNL     1       8.476  -3.825  25.635  1.00  0.00     0.237 C 
ENDBRANCH  15  17
ENDBRANCH   6  15
TORSDOF 2
