MODEL 1
REMARK VINA RESULT:    -5.470      0.000      0.000
REMARK INTER + INTRA:          -6.462
REMARK INTER:                  -6.110
REMARK INTRA:                  -0.353
REMARK UNBOUND:                -0.353
REMARK  2 active torsions:
REMARK  status: ('A' for Active; 'I' for Inactive)
REMARK    1  A    between atoms: O_2  and  N_4 
REMARK    2  A    between atoms: N_4  and  C_10 
ROOT
HETATM    1  H   UNL     1      23.000  -3.280  23.076  1.00  0.00     0.134 HD
HETATM    2  C   UNL     1      25.144  -4.998  27.256  1.00  0.00     0.072 C 
HETATM    3  N   UNL     1      23.652  -3.273  27.399  1.00  0.00    -0.303 N 
ATOM      4  HN  UNL     1      23.705  -3.616  28.358  1.00  0.00     0.186 HD
HETATM    5  C   UNL     1      24.152  -4.137  26.589  1.00  0.00     0.052 C 
HETATM    6  C   UNL     1      23.606  -4.332  25.304  1.00  0.00     0.101 C 
HETATM    7  C   UNL     1      22.782  -3.189  24.899  1.00  0.00     0.065 A 
HETATM    8  N   UNL     1      23.050  -1.996  27.369  1.00  0.00    -0.312 N 
ATOM      9  HN  UNL     1      23.168  -1.699  28.338  1.00  0.00     0.186 HD
HETATM   10  N   UNL     1      22.549  -2.702  23.763  1.00  0.00    -0.255 NA
HETATM   11  C   UNL     1      22.370  -0.852  26.806  1.00  0.00     0.107 C 
HETATM   12  C   UNL     1      21.213  -0.712  26.041  1.00  0.00     0.020 C 
HETATM   13  C   UNL     1      21.809  -2.344  24.803  1.00  0.00     0.037 A 
HETATM   14  C   UNL     1      20.737  -1.671  25.261  1.00  0.00     0.027 C 
ENDROOT
BRANCH   6  15
HETATM   15  N   UNL     1      23.723  -5.212  24.454  1.00  0.00    -0.264 N 
ATOM     16  HN  UNL     1      23.368  -6.099  24.814  1.00  0.00     0.194 HD
BRANCH  15  17
HETATM   17  O   UNL     1      24.176  -5.368  23.192  1.00  0.00    -0.285 OA
HETATM   18  C   UNL     1      25.200  -4.749  22.406  1.00  0.00     0.237 C 
ENDBRANCH  15  17
ENDBRANCH   6  15
TORSDOF 2
ENDMDL
MODEL 2
REMARK VINA RESULT:    -5.406     11.998     14.076
REMARK INTER + INTRA:          -6.391
REMARK INTER:                  -6.263
REMARK INTRA:                  -0.128
REMARK UNBOUND:                -0.353
REMARK  2 active torsions:
REMARK  status: ('A' for Active; 'I' for Inactive)
REMARK    1  A    between atoms: O_2  and  N_4 
REMARK    2  A    between atoms: N_4  and  C_10 
ROOT
HETATM    1  H   UNL     1       9.744  -2.416  21.830  1.00  0.00     0.134 HD
HETATM    2  C   UNL     1       8.750   2.483  22.039  1.00  0.00     0.072 C 
HETATM    3  N   UNL     1      10.665   1.694  23.005  1.00  0.00    -0.303 N 
ATOM      4  HN  UNL     1      10.840   2.695  22.922  1.00  0.00     0.186 HD
HETATM    5  C   UNL     1       9.669   1.354  22.268  1.00  0.00     0.052 C 
HETATM    6  C   UNL     1       9.644   0.110  21.605  1.00  0.00     0.101 C 
HETATM    7  C   UNL     1      10.595  -0.830  22.206  1.00  0.00     0.065 A 
HETATM    8  N   UNL     1      11.591   1.107  23.894  1.00  0.00    -0.312 N 
ATOM      9  HN  UNL     1      11.916   1.926  24.410  1.00  0.00     0.186 HD
HETATM   10  N   UNL     1      10.564  -2.084  22.308  1.00  0.00    -0.255 NA
HETATM   11  C   UNL     1      12.361   0.057  24.522  1.00  0.00     0.107 C 
HETATM   12  C   UNL     1      13.162  -0.967  24.020  1.00  0.00     0.020 C 
HETATM   13  C   UNL     1      11.690  -1.427  22.547  1.00  0.00     0.037 A 
HETATM   14  C   UNL     1      13.008  -1.484  22.811  1.00  0.00     0.027 C 
ENDROOT
BRANCH   6  15
HETATM   15  N   UNL     1       8.968  -0.354  20.689  1.00  0.00    -0.264 N 
ATOM     16  HN  UNL     1       8.798  -1.348  20.845  1.00  0.00     0.194 HD
BRANCH  15  17
HETATM   17  O   UNL     1       8.379   0.046  19.541  1.00  0.00    -0.285 OA
HETATM   18  C   UNL     1       7.029   0.115  19.073  1.00  0.00     0.237 C 
ENDBRANCH  15  17
ENDBRANCH   6  15
TORSDOF 2
ENDMDL
MODEL 3
REMARK VINA RESULT:    -5.372     14.951     16.831
REMARK INTER + INTRA:          -6.352
REMARK INTER:                  -6.233
REMARK INTRA:                  -0.119
REMARK UNBOUND:                -0.353
REMARK  2 active torsions:
REMARK  status: ('A' for Active; 'I' for Inactive)
REMARK    1  A    between atoms: O_2  and  N_4 
REMARK    2  A    between atoms: N_4  and  C_10 
ROOT
HETATM    1  H   UNL     1       9.208  -0.245  19.017  1.00  0.00     0.134 HD
HETATM    2  C   UNL     1       7.926   0.377  23.813  1.00  0.00     0.072 C 
HETATM    3  N   UNL     1       6.377   0.790  22.184  1.00  0.00    -0.303 N 
ATOM      4  HN  UNL     1       5.811   0.698  23.027  1.00  0.00     0.186 HD
HETATM    5  C   UNL     1       7.557   0.323  22.387  1.00  0.00     0.052 C 
HETATM    6  C   UNL     1       8.258  -0.353  21.368  1.00  0.00     0.101 C 
HETATM    7  C   UNL     1       7.698  -0.049  20.048  1.00  0.00     0.065 A 
HETATM    8  N   UNL     1       5.623   1.390  21.152  1.00  0.00    -0.312 N 
ATOM      9  HN  UNL     1       4.874   1.831  21.686  1.00  0.00     0.186 HD
HETATM   10  N   UNL     1       8.243   0.015  18.916  1.00  0.00    -0.255 NA
HETATM   11  C   UNL     1       5.263   1.762  19.803  1.00  0.00     0.107 C 
HETATM   12  C   UNL     1       5.112   1.036  18.622  1.00  0.00     0.020 C 
HETATM   13  C   UNL     1       6.922  -0.022  19.015  1.00  0.00     0.037 A 
HETATM   14  C   UNL     1       5.734  -0.109  18.388  1.00  0.00     0.027 C 
ENDROOT
BRANCH   6  15
HETATM   15  N   UNL     1       9.251  -1.078  21.354  1.00  0.00    -0.264 N 
ATOM     16  HN  UNL     1       9.598  -1.181  20.401  1.00  0.00     0.194 HD
BRANCH  15  17
HETATM   17  O   UNL     1      10.023  -1.780  22.211  1.00  0.00    -0.285 OA
HETATM   18  C   UNL     1      11.251  -1.523  22.901  1.00  0.00     0.237 C 
ENDBRANCH  15  17
ENDBRANCH   6  15
TORSDOF 2
ENDMDL
MODEL 4
REMARK VINA RESULT:    -5.318     15.160     16.987
REMARK INTER + INTRA:          -6.292
REMARK INTER:                  -5.986
REMARK INTRA:                  -0.306
REMARK UNBOUND:                -0.353
REMARK  2 active torsions:
REMARK  status: ('A' for Active; 'I' for Inactive)
REMARK    1  A    between atoms: O_2  and  N_4 
REMARK    2  A    between atoms: N_4  and  C_10 
ROOT
HETATM    1  H   UNL     1       4.592  -2.336  21.642  1.00  0.00     0.134 HD
HETATM    2  C   UNL     1       9.057  -0.291  22.594  1.00  0.00     0.072 C 
HETATM    3  N   UNL     1       8.807  -2.554  22.780  1.00  0.00    -0.303 N 
ATOM      4  HN  UNL     1       9.819  -2.434  22.729  1.00  0.00     0.186 HD
HETATM    5  C   UNL     1       8.211  -1.481  22.399  1.00  0.00     0.052 C 
HETATM    6  C   UNL     1       7.000  -1.537  21.680  1.00  0.00     0.101 C 
HETATM    7  C   UNL     1       6.349  -2.841  21.840  1.00  0.00     0.065 A 
HETATM    8  N   UNL     1       8.493  -3.849  23.248  1.00  0.00    -0.312 N 
ATOM      9  HN  UNL     1       9.372  -4.119  23.690  1.00  0.00     0.186 HD
HETATM   10  N   UNL     1       5.132  -3.160  21.839  1.00  0.00    -0.255 NA
HETATM   11  C   UNL     1       7.687  -5.026  23.485  1.00  0.00     0.107 C 
HETATM   12  C   UNL     1       6.906  -5.828  22.654  1.00  0.00     0.020 C 
HETATM   13  C   UNL     1       6.063  -4.097  21.736  1.00  0.00     0.037 A 
HETATM   14  C   UNL     1       6.358  -5.394  21.530  1.00  0.00     0.027 C 
ENDROOT
BRANCH   6  15
HETATM   15  N   UNL     1       6.368  -0.721  21.013  1.00  0.00    -0.264 N 
ATOM     16  HN  UNL     1       6.426   0.204  21.441  1.00  0.00     0.194 HD
BRANCH  15  17
HETATM   17  O   UNL     1       5.620  -0.670  19.890  1.00  0.00    -0.285 OA
HETATM   18  C   UNL     1       5.867  -0.293  18.532  1.00  0.00     0.237 C 
ENDBRANCH  15  17
ENDBRANCH   6  15
TORSDOF 2
ENDMDL
MODEL 5
REMARK VINA RESULT:    -5.226     14.314     16.220
REMARK INTER + INTRA:          -6.190
REMARK INTER:                  -5.954
REMARK INTRA:                  -0.235
REMARK UNBOUND:                -0.353
REMARK  2 active torsions:
REMARK  status: ('A' for Active; 'I' for Inactive)
REMARK    1  A    between atoms: O_2  and  N_4 
REMARK    2  A    between atoms: N_4  and  C_10 
ROOT
HETATM    1  H   UNL     1       7.993   0.111  19.544  1.00  0.00     0.134 HD
HETATM    2  C   UNL     1       5.771  -3.370  22.366  1.00  0.00     0.072 C 
HETATM    3  N   UNL     1       7.853  -2.629  22.947  1.00  0.00    -0.303 N 
ATOM      4  HN  UNL     1       7.519  -3.078  23.799  1.00  0.00     0.186 HD
HETATM    5  C   UNL     1       6.875  -2.421  22.140  1.00  0.00     0.052 C 
HETATM    6  C   UNL     1       6.833  -1.269  21.329  1.00  0.00     0.101 C 
HETATM    7  C   UNL     1       8.160  -0.659  21.205  1.00  0.00     0.065 A 
HETATM    8  N   UNL     1       9.249  -2.427  23.017  1.00  0.00    -0.312 N 
ATOM      9  HN  UNL     1       9.509  -3.090  23.748  1.00  0.00     0.186 HD
HETATM   10  N   UNL     1       8.683  -0.006  20.265  1.00  0.00    -0.255 NA
HETATM   11  C   UNL     1      10.535  -1.856  22.686  1.00  0.00     0.107 C 
HETATM   12  C   UNL     1      10.994  -0.545  22.567  1.00  0.00     0.020 C 
HETATM   13  C   UNL     1       9.248  -0.011  21.463  1.00  0.00     0.037 A 
HETATM   14  C   UNL     1      10.205   0.477  22.275  1.00  0.00     0.027 C 
ENDROOT
BRANCH   6  15
HETATM   15  N   UNL     1       5.948  -0.719  20.676  1.00  0.00    -0.264 N 
ATOM     16  HN  UNL     1       5.424  -0.072  21.267  1.00  0.00     0.194 HD
BRANCH  15  17
HETATM   17  O   UNL     1       5.455  -0.707  19.419  1.00  0.00    -0.285 OA
HETATM   18  C   UNL     1       5.754   0.027  18.228  1.00  0.00     0.237 C 
ENDBRANCH  15  17
ENDBRANCH   6  15
TORSDOF 2
ENDMDL
MODEL 6
REMARK VINA RESULT:    -5.193     30.518     31.673
REMARK INTER + INTRA:          -6.153
REMARK INTER:                  -5.837
REMARK INTRA:                  -0.316
REMARK UNBOUND:                -0.353
REMARK  2 active torsions:
REMARK  status: ('A' for Active; 'I' for Inactive)
REMARK    1  A    between atoms: O_2  and  N_4 
REMARK    2  A    between atoms: N_4  and  C_10 
ROOT
HETATM    1  H   UNL     1      -1.634 -16.254  10.131  1.00  0.00     0.134 HD
HETATM    2  C   UNL     1       2.483 -19.024   9.498  1.00  0.00     0.072 C 
HETATM    3  N   UNL     1       1.581 -17.944   7.698  1.00  0.00    -0.303 N 
ATOM      4  HN  UNL     1       2.525 -18.171   7.386  1.00  0.00     0.186 HD
HETATM    5  C   UNL     1       1.492 -18.068   8.974  1.00  0.00     0.052 C 
HETATM    6  C   UNL     1       0.689 -17.196   9.736  1.00  0.00     0.101 C 
HETATM    7  C   UNL     1      -0.299 -16.513   8.895  1.00  0.00     0.065 A 
HETATM    8  N   UNL     1       0.773 -17.590   6.596  1.00  0.00    -0.312 N 
ATOM      9  HN  UNL     1       1.304 -17.995   5.824  1.00  0.00     0.186 HD
HETATM   10  N   UNL     1      -1.457 -16.097   9.155  1.00  0.00    -0.255 NA
HETATM   11  C   UNL     1      -0.346 -17.006   5.891  1.00  0.00     0.107 C 
HETATM   12  C   UNL     1      -0.928 -15.740   5.911  1.00  0.00     0.020 C 
HETATM   13  C   UNL     1      -0.848 -15.713   8.042  1.00  0.00     0.037 A 
HETATM   14  C   UNL     1      -0.859 -14.924   6.951  1.00  0.00     0.027 C 
ENDROOT
BRANCH   6  15
HETATM   15  N   UNL     1       0.610 -16.941  10.936  1.00  0.00    -0.264 N 
ATOM     16  HN  UNL     1       1.535 -16.737  11.315  1.00  0.00     0.194 HD
BRANCH  15  17
HETATM   17  O   UNL     1      -0.323 -16.848  11.908  1.00  0.00    -0.285 OA
HETATM   18  C   UNL     1      -0.298 -16.507  13.298  1.00  0.00     0.237 C 
ENDBRANCH  15  17
ENDBRANCH   6  15
TORSDOF 2
ENDMDL
MODEL 7
REMARK VINA RESULT:    -5.103     12.752     15.036
REMARK INTER + INTRA:          -6.052
REMARK INTER:                  -5.699
REMARK INTRA:                  -0.353
REMARK UNBOUND:                -0.353
REMARK  2 active torsions:
REMARK  status: ('A' for Active; 'I' for Inactive)
REMARK    1  A    between atoms: O_2  and  N_4 
REMARK    2  A    between atoms: N_4  and  C_10 
ROOT
HETATM    1  H   UNL     1      10.651   3.101  22.733  1.00  0.00     0.134 HD
HETATM    2  C   UNL     1       7.814   0.023  19.995  1.00  0.00     0.072 C 
HETATM    3  N   UNL     1       9.359  -0.865  21.425  1.00  0.00    -0.303 N 
ATOM      4  HN  UNL     1       8.742  -1.653  21.229  1.00  0.00     0.186 HD
HETATM    5  C   UNL     1       8.803   0.236  21.066  1.00  0.00     0.052 C 
HETATM    6  C   UNL     1       8.990   1.421  21.805  1.00  0.00     0.101 C 
HETATM    7  C   UNL     1      10.172   1.327  22.667  1.00  0.00     0.065 A 
HETATM    8  N   UNL     1      10.562  -1.320  22.007  1.00  0.00    -0.312 N 
ATOM      9  HN  UNL     1      10.553  -2.304  21.738  1.00  0.00     0.186 HD
HETATM   10  N   UNL     1      10.975   2.211  23.066  1.00  0.00    -0.255 NA
HETATM   11  C   UNL     1      11.799  -1.245  22.751  1.00  0.00     0.107 C 
HETATM   12  C   UNL     1      12.125  -0.742  24.010  1.00  0.00     0.020 C 
HETATM   13  C   UNL     1      10.972   1.012  23.632  1.00  0.00     0.037 A 
HETATM   14  C   UNL     1      11.435   0.214  24.612  1.00  0.00     0.027 C 
ENDROOT
BRANCH   6  15
HETATM   15  N   UNL     1       8.416   2.508  21.832  1.00  0.00    -0.264 N 
ATOM     16  HN  UNL     1       7.914   2.663  20.957  1.00  0.00     0.194 HD
BRANCH  15  17
HETATM   17  O   UNL     1       8.245   3.561  22.661  1.00  0.00    -0.285 OA
HETATM   18  C   UNL     1       7.266   3.922  23.639  1.00  0.00     0.237 C 
ENDBRANCH  15  17
ENDBRANCH   6  15
TORSDOF 2
ENDMDL
MODEL 8
REMARK VINA RESULT:    -5.100     31.022     32.177
REMARK INTER + INTRA:          -6.049
REMARK INTER:                  -5.668
REMARK INTRA:                  -0.381
REMARK UNBOUND:                -0.353
REMARK  2 active torsions:
REMARK  status: ('A' for Active; 'I' for Inactive)
REMARK    1  A    between atoms: O_2  and  N_4 
REMARK    2  A    between atoms: N_4  and  C_10 
ROOT
HETATM    1  H   UNL     1      -0.236 -20.778  10.174  1.00  0.00     0.134 HD
HETATM    2  C   UNL     1       0.237 -15.893   9.206  1.00  0.00     0.072 C 
HETATM    3  N   UNL     1       1.965 -17.300   8.699  1.00  0.00    -0.303 N 
ATOM      4  HN  UNL     1       2.177 -16.463   8.156  1.00  0.00     0.186 HD
HETATM    5  C   UNL     1       0.744 -17.272   9.100  1.00  0.00     0.052 C 
HETATM    6  C   UNL     1      -0.023 -18.452   9.181  1.00  0.00     0.101 C 
HETATM    7  C   UNL     1       0.834 -19.641   9.203  1.00  0.00     0.065 A 
HETATM    8  N   UNL     1       3.102 -18.132   8.780  1.00  0.00    -0.312 N 
ATOM      9  HN  UNL     1       3.846 -17.473   8.552  1.00  0.00     0.186 HD
HETATM   10  N   UNL     1       0.674 -20.764   9.748  1.00  0.00    -0.255 NA
HETATM   11  C   UNL     1       3.857 -19.347   8.988  1.00  0.00     0.107 C 
HETATM   12  C   UNL     1       3.731 -20.645   8.493  1.00  0.00     0.020 C 
HETATM   13  C   UNL     1       1.627 -20.596   8.843  1.00  0.00     0.037 A 
HETATM   14  C   UNL     1       2.582 -21.155   8.076  1.00  0.00     0.027 C 
ENDROOT
BRANCH   6  15
HETATM   15  N   UNL     1      -1.226 -18.680   9.293  1.00  0.00    -0.264 N 
ATOM     16  HN  UNL     1      -1.718 -17.837   9.591  1.00  0.00     0.194 HD
BRANCH  15  17
HETATM   17  O   UNL     1      -2.097 -19.701   9.143  1.00  0.00    -0.285 OA
HETATM   18  C   UNL     1      -2.595 -20.443   8.025  1.00  0.00     0.237 C 
ENDBRANCH  15  17
ENDBRANCH   6  15
TORSDOF 2
ENDMDL
MODEL 9
REMARK VINA RESULT:    -4.950     31.012     32.525
REMARK INTER + INTRA:          -5.881
REMARK INTER:                  -5.547
REMARK INTRA:                  -0.333
REMARK UNBOUND:                -0.353
REMARK  2 active torsions:
REMARK  status: ('A' for Active; 'I' for Inactive)
REMARK    1  A    between atoms: O_2  and  N_4 
REMARK    2  A    between atoms: N_4  and  C_10 
ROOT
HETATM    1  H   UNL     1       5.891  15.482   3.750  1.00  0.00     0.134 HD
HETATM    2  C   UNL     1      10.852  14.898   4.014  1.00  0.00     0.072 C 
HETATM    3  N   UNL     1       9.563  13.154   3.294  1.00  0.00    -0.303 N 
ATOM      4  HN  UNL     1      10.499  12.897   2.982  1.00  0.00     0.186 HD
HETATM    5  C   UNL     1       9.525  14.398   3.612  1.00  0.00     0.052 C 
HETATM    6  C   UNL     1       8.380  15.180   3.360  1.00  0.00     0.101 C 
HETATM    7  C   UNL     1       7.199  14.338   3.150  1.00  0.00     0.065 A 
HETATM    8  N   UNL     1       8.706  12.033   3.243  1.00  0.00    -0.312 N 
ATOM      9  HN  UNL     1       9.382  11.268   3.227  1.00  0.00     0.186 HD
HETATM   10  N   UNL     1       5.983  14.546   3.398  1.00  0.00    -0.255 NA
HETATM   11  C   UNL     1       7.458  11.305   3.201  1.00  0.00     0.107 C 
HETATM   12  C   UNL     1       6.320  11.411   2.403  1.00  0.00     0.020 C 
HETATM   13  C   UNL     1       6.338  13.533   2.621  1.00  0.00     0.037 A 
HETATM   14  C   UNL     1       5.954  12.534   1.804  1.00  0.00     0.027 C 
ENDROOT
BRANCH   6  15
HETATM   15  N   UNL     1       8.163  16.390   3.338  1.00  0.00    -0.264 N 
ATOM     16  HN  UNL     1       8.689  16.856   4.079  1.00  0.00     0.194 HD
BRANCH  15  17
HETATM   17  O   UNL     1       7.444  17.293   2.638  1.00  0.00    -0.285 OA
HETATM   18  C   UNL     1       7.475  17.779   1.292  1.00  0.00     0.237 C 
ENDBRANCH  15  17
ENDBRANCH   6  15
TORSDOF 2
ENDMDL
