stable:False satoms:7 tatoms:24 sratio:0.2916666666666667
  -OEChem-07092417493D

 24 25  0     1  0  0  0  0  0999 V2000
    6.6185   -4.8834   26.4231 C   0  0  0  0  0  0  0  0  0  0  0  0
    8.2533   -4.2892   26.0939 S   0  0  0  0  0  0  0  0  0  0  0  0
    9.1068   -5.4473   26.0572 O   0  0  0  0  0  0  0  0  0  0  0  0
    8.5999   -3.3829   27.1510 O   0  0  0  0  0  0  0  0  0  0  0  0
    8.1000   -3.5556   24.6712 N   0  0  0  0  0  0  0  0  0  0  0  0
    8.9846   -2.9603   24.1241 C   0  0  0  0  0  0  0  0  0  0  0  0
    9.4252   -2.0124   23.5035 C   0  0  0  0  0  0  0  0  0  0  0  0
   10.2831   -1.1608   23.2617 C   0  0  1  0  0  0  0  0  0  0  0  0
   11.0116   -0.0037   24.2880 C   0  0  0  0  0  0  0  0  0  0  0  0
   12.0665    0.2976   24.2337 C   0  0  0  0  0  0  0  0  0  0  0  0
   13.0911   -0.1692   23.4779 C   0  0  0  0  0  0  0  0  0  0  0  0
   12.6993   -1.2889   22.6507 C   0  0  0  0  0  0  0  0  0  0  0  0
   11.8074   -1.7566   22.5099 C   0  0  0  0  0  0  0  0  0  0  0  0
    9.7364   -0.5597   22.3535 C   0  0  0  0  0  0  0  0  0  0  0  0
    9.0620    0.0554   21.3894 C   0  0  0  0  0  0  0  0  0  0  0  0
    9.5289    1.0142   20.9911 O   0  0  0  0  0  0  0  0  0  0  0  0
    7.9136   -0.5544   21.1023 N   0  0  0  0  0  0  0  0  0  0  0  0
    7.2126   -0.1015   20.1765 C   0  0  0  0  0  0  0  0  0  0  0  0
    7.2436   -0.0243   18.8426 C   0  0  0  0  0  0  0  0  0  0  0  0
    6.7703    0.3238   17.7925 N   0  0  0  0  0  0  0  0  0  0  0  0
    5.6717    0.9256   18.2299 C   0  0  0  0  0  0  0  0  0  0  0  0
    5.2691    1.0119   19.4215 C   0  0  0  0  0  0  0  0  0  0  0  0
    5.8021    0.5694   20.5724 C   0  0  0  0  0  0  0  0  0  0  0  0
    5.3266    0.6624   21.9791 C   0  0  0  0  0  0  0  0  0  0  0  0
 20 21  2  0  0  0  0
 19 20  1  0  0  0  0
 21 22  1  0  0  0  0
 18 19  2  0  0  0  0
 22 23  2  0  0  0  0
 18 23  1  0  0  0  0
 17 18  1  0  0  0  0
 23 24  1  0  0  0  0
 15 16  2  0  0  0  0
 15 17  1  0  0  0  0
 14 15  1  0  0  0  0
  8 14  1  0  0  0  0
 12 13  1  0  0  0  0
  8 13  1  0  0  0  0
 11 12  2  0  0  0  0
  7  8  1  0  0  0  0
  8  9  1  0  0  0  0
 10 11  1  0  0  0  0
  6  7  2  3  0  0  0
  5  6  1  0  0  0  0
  9 10  2  0  0  0  0
  2  5  1  0  0  0  0
  2  3  2  0  0  0  0
  1  2  1  0  0  0  0
  2  4  2  0  0  0  0
M  END
> <Shapegauss>
-286.370789

$$$$
