MODEL 1
REMARK VINA RESULT:    -7.539      0.000      0.000
REMARK INTER + INTRA:         -11.317
REMARK INTER:                 -10.183
REMARK INTRA:                  -1.134
REMARK UNBOUND:                -1.134
REMARK  6 active torsions:
REMARK  status: ('A' for Active; 'I' for Inactive)
REMARK    1  A    between atoms: S_2  and  N_5 
REMARK    2  A    between atoms: C_7  and  C_8 
REMARK    3  A    between atoms: C_8  and  C_9 
REMARK    4  A    between atoms: C_9  and  C_15 
REMARK    5  A    between atoms: C_15  and  C_16 
REMARK       I    between atoms: C_16  and  N_18 
REMARK    6  A    between atoms: N_18  and  C_20 
ROOT
HETATM    1  C   UNL     1       9.381  -1.539  23.364  1.00  0.00     0.076 C 
HETATM    2  C   UNL     1       9.168  -0.533  24.729  1.00  0.00     0.003 C 
HETATM    3  C   UNL     1       9.942   0.128  25.142  1.00  0.00    -0.002 C 
HETATM    4  C   UNL     1      11.248   0.287  24.812  1.00  0.00    -0.001 C 
HETATM    5  C   UNL     1      11.666  -0.622  23.767  1.00  0.00    -0.002 C 
HETATM    6  C   UNL     1      11.163  -1.318  23.223  1.00  0.00     0.003 C 
ENDROOT
BRANCH   1   7
HETATM    7  C   UNL     1       8.952  -2.671  23.133  1.00  0.00     0.021 C 
BRANCH   7   8
HETATM    8  C   UNL     1       8.057  -3.470  22.936  1.00  0.00     0.098 C 
HETATM    9  N   UNL     1       7.578  -4.414  22.373  1.00  0.00    -0.296 N 
ATOM     10  HN  UNL     1       8.171  -5.229  22.215  1.00  0.00     0.177 HD
BRANCH   9  11
HETATM   11  S   UNL     1       6.058  -4.475  21.852  1.00  0.00     0.226 S 
HETATM   12  C   UNL     1       5.176  -5.116  23.245  1.00  0.00     0.186 C 
HETATM   13  O   UNL     1       5.492  -3.182  21.572  1.00  0.00    -0.206 OA
HETATM   14  O   UNL     1       5.879  -5.400  20.770  1.00  0.00    -0.206 OA
ENDBRANCH   9  11
ENDBRANCH   7   8
ENDBRANCH   1   7
BRANCH   1  15
HETATM   15  C   UNL     1       8.945  -0.945  22.393  1.00  0.00    -0.061 C 
BRANCH  15  16
HETATM   16  C   UNL     1       8.431  -0.376  21.309  1.00  0.00     0.290 C 
HETATM   17  O   UNL     1       9.149   0.256  20.692  1.00  0.00    -0.259 OA
HETATM   18  N   UNL     1       7.128  -0.616  21.177  1.00  0.00    -0.315 N 
ATOM     19  HN  UNL     1       6.623  -1.147  21.886  1.00  0.00     0.170 HD
BRANCH  18  20
HETATM   20  C   UNL     1       6.539  -0.178  20.171  1.00  0.00     0.057 A 
HETATM   21  C   UNL     1       6.230  -0.583  18.935  1.00  0.00     0.117 A 
HETATM   22  N   UNL     1       5.735  -0.397  17.854  1.00  0.00    -0.373 N 
HETATM   23  C   UNL     1       5.286   0.840  18.022  1.00  0.00     0.088 A 
ATOM     24  HN  UNL     1       5.677  -1.013  17.043  1.00  0.00     0.164 HD
HETATM   25  C   UNL     1       5.340   1.538  19.071  1.00  0.00     0.026 A 
HETATM   26  C   UNL     1       5.862   1.281  20.281  1.00  0.00    -0.033 A 
HETATM   27  C   UNL     1       5.922   2.098  21.523  1.00  0.00     0.050 C 
ENDBRANCH  18  20
ENDBRANCH  15  16
ENDBRANCH   1  15
TORSDOF 6
ENDMDL
MODEL 2
REMARK VINA RESULT:    -7.170      2.763      5.845
REMARK INTER + INTRA:         -10.819
REMARK INTER:                  -9.939
REMARK INTRA:                  -0.880
REMARK UNBOUND:                -1.134
REMARK  6 active torsions:
REMARK  status: ('A' for Active; 'I' for Inactive)
REMARK    1  A    between atoms: S_2  and  N_5 
REMARK    2  A    between atoms: C_7  and  C_8 
REMARK    3  A    between atoms: C_8  and  C_9 
REMARK    4  A    between atoms: C_9  and  C_15 
REMARK    5  A    between atoms: C_15  and  C_16 
REMARK       I    between atoms: C_16  and  N_18 
REMARK    6  A    between atoms: N_18  and  C_20 
ROOT
HETATM    1  C   UNL     1      10.331  -0.785  23.234  1.00  0.00     0.076 C 
HETATM    2  C   UNL     1      11.772  -1.597  22.801  1.00  0.00     0.003 C 
HETATM    3  C   UNL     1      12.746  -1.433  23.280  1.00  0.00    -0.002 C 
HETATM    4  C   UNL     1      13.138  -0.538  24.222  1.00  0.00    -0.001 C 
HETATM    5  C   UNL     1      12.075   0.367  24.597  1.00  0.00    -0.002 C 
HETATM    6  C   UNL     1      11.099   0.432  24.316  1.00  0.00     0.003 C 
ENDROOT
BRANCH   1   7
HETATM    7  C   UNL     1       9.402  -0.382  22.532  1.00  0.00     0.021 C 
BRANCH   7   8
HETATM    8  C   UNL     1       8.712  -0.406  21.532  1.00  0.00     0.098 C 
HETATM    9  N   UNL     1       8.506  -0.172  20.374  1.00  0.00    -0.296 N 
ATOM     10  HN  UNL     1       9.256  -0.356  19.708  1.00  0.00     0.177 HD
BRANCH   9  11
HETATM   11  S   UNL     1       7.121   0.414  19.806  1.00  0.00     0.226 S 
HETATM   12  C   UNL     1       6.001  -0.945  19.983  1.00  0.00     0.186 C 
HETATM   13  O   UNL     1       6.583   1.490  20.596  1.00  0.00    -0.206 OA
HETATM   14  O   UNL     1       7.185   0.737  18.409  1.00  0.00    -0.206 OA
ENDBRANCH   9  11
ENDBRANCH   7   8
ENDBRANCH   1   7
BRANCH   1  15
HETATM   15  C   UNL     1       9.718  -1.502  24.005  1.00  0.00    -0.061 C 
BRANCH  15  16
HETATM   16  C   UNL     1       9.027  -2.209  24.892  1.00  0.00     0.290 C 
HETATM   17  O   UNL     1       8.774  -1.673  25.864  1.00  0.00    -0.259 OA
HETATM   18  N   UNL     1       8.804  -3.456  24.487  1.00  0.00    -0.315 N 
ATOM     19  HN  UNL     1       9.184  -3.792  23.602  1.00  0.00     0.170 HD
BRANCH  18  20
HETATM   20  C   UNL     1       8.120  -4.206  25.209  1.00  0.00     0.057 A 
HETATM   21  C   UNL     1       8.291  -5.006  26.267  1.00  0.00     0.117 A 
HETATM   22  N   UNL     1       7.868  -5.780  27.086  1.00  0.00    -0.373 N 
HETATM   23  C   UNL     1       6.598  -5.835  26.710  1.00  0.00     0.088 A 
ATOM     24  HN  UNL     1       8.349  -6.257  27.849  1.00  0.00     0.164 HD
HETATM   25  C   UNL     1       6.044  -5.180  25.785  1.00  0.00     0.026 A 
HETATM   26  C   UNL     1       6.538  -4.284  24.915  1.00  0.00    -0.033 A 
HETATM   27  C   UNL     1       5.888  -3.505  23.827  1.00  0.00     0.050 C 
ENDBRANCH  18  20
ENDBRANCH  15  16
ENDBRANCH   1  15
TORSDOF 6
ENDMDL
MODEL 3
REMARK VINA RESULT:    -6.806      2.401      6.007
REMARK INTER + INTRA:         -10.328
REMARK INTER:                  -9.716
REMARK INTRA:                  -0.612
REMARK UNBOUND:                -1.134
REMARK  6 active torsions:
REMARK  status: ('A' for Active; 'I' for Inactive)
REMARK    1  A    between atoms: S_2  and  N_5 
REMARK    2  A    between atoms: C_7  and  C_8 
REMARK    3  A    between atoms: C_8  and  C_9 
REMARK    4  A    between atoms: C_9  and  C_15 
REMARK    5  A    between atoms: C_15  and  C_16 
REMARK       I    between atoms: C_16  and  N_18 
REMARK    6  A    between atoms: N_18  and  C_20 
ROOT
HETATM    1  C   UNL     1       6.140  -3.500  22.503  1.00  0.00     0.076 C 
HETATM    2  C   UNL     1       5.176  -3.868  23.866  1.00  0.00     0.003 C 
HETATM    3  C   UNL     1       5.022  -4.880  24.263  1.00  0.00    -0.002 C 
HETATM    4  C   UNL     1       5.416  -6.092  23.797  1.00  0.00    -0.001 C 
HETATM    5  C   UNL     1       6.113  -5.995  22.533  1.00  0.00    -0.002 C 
HETATM    6  C   UNL     1       6.387  -5.200  21.961  1.00  0.00     0.003 C 
ENDROOT
BRANCH   1   7
HETATM    7  C   UNL     1       5.976  -2.663  21.613  1.00  0.00     0.021 C 
BRANCH   7   8
HETATM    8  C   UNL     1       6.306  -1.682  20.975  1.00  0.00     0.098 C 
HETATM    9  N   UNL     1       6.217  -0.523  20.682  1.00  0.00    -0.296 N 
ATOM     10  HN  UNL     1       6.122   0.155  21.438  1.00  0.00     0.177 HD
BRANCH   9  11
HETATM   11  S   UNL     1       6.238   0.028  19.172  1.00  0.00     0.226 S 
HETATM   12  C   UNL     1       5.005   1.297  19.186  1.00  0.00     0.186 C 
HETATM   13  O   UNL     1       7.475   0.667  18.809  1.00  0.00    -0.206 OA
HETATM   14  O   UNL     1       5.826  -0.958  18.215  1.00  0.00    -0.206 OA
ENDBRANCH   9  11
ENDBRANCH   7   8
ENDBRANCH   1   7
BRANCH   1  15
HETATM   15  C   UNL     1       7.241  -3.169  22.905  1.00  0.00    -0.061 C 
BRANCH  15  16
HETATM   16  C   UNL     1       8.457  -2.895  23.363  1.00  0.00     0.290 C 
HETATM   17  O   UNL     1       8.885  -3.639  24.111  1.00  0.00    -0.259 OA
HETATM   18  N   UNL     1       8.933  -1.745  22.890  1.00  0.00    -0.315 N 
ATOM     19  HN  UNL     1       8.364  -1.158  22.280  1.00  0.00     0.170 HD
BRANCH  18  20
HETATM   20  C   UNL     1      10.087  -1.401  23.206  1.00  0.00     0.057 A 
HETATM   21  C   UNL     1      11.346  -1.657  22.836  1.00  0.00     0.117 A 
HETATM   22  N   UNL     1      12.534  -1.503  22.951  1.00  0.00    -0.373 N 
HETATM   23  C   UNL     1      12.553  -0.644  23.961  1.00  0.00     0.088 A 
ATOM     24  HN  UNL     1      13.304  -1.915  22.423  1.00  0.00     0.164 HD
HETATM   25  C   UNL     1      11.562  -0.126  24.544  1.00  0.00     0.026 A 
HETATM   26  C   UNL     1      10.241  -0.285  24.359  1.00  0.00    -0.033 A 
HETATM   27  C   UNL     1       9.069   0.328  25.040  1.00  0.00     0.050 C 
ENDBRANCH  18  20
ENDBRANCH  15  16
ENDBRANCH   1  15
TORSDOF 6
ENDMDL
MODEL 4
REMARK VINA RESULT:    -6.756      4.124      6.388
REMARK INTER + INTRA:         -10.260
REMARK INTER:                  -9.661
REMARK INTRA:                  -0.599
REMARK UNBOUND:                -1.134
REMARK  6 active torsions:
REMARK  status: ('A' for Active; 'I' for Inactive)
REMARK    1  A    between atoms: S_2  and  N_5 
REMARK    2  A    between atoms: C_7  and  C_8 
REMARK    3  A    between atoms: C_8  and  C_9 
REMARK    4  A    between atoms: C_9  and  C_15 
REMARK    5  A    between atoms: C_15  and  C_16 
REMARK       I    between atoms: C_16  and  N_18 
REMARK    6  A    between atoms: N_18  and  C_20 
ROOT
HETATM    1  C   UNL     1       7.331  -4.716  24.257  1.00  0.00     0.076 C 
HETATM    2  C   UNL     1       7.675  -5.711  22.909  1.00  0.00     0.003 C 
HETATM    3  C   UNL     1       6.953  -5.960  22.121  1.00  0.00    -0.002 C 
HETATM    4  C   UNL     1       5.631  -5.681  22.000  1.00  0.00    -0.001 C 
HETATM    5  C   UNL     1       5.110  -4.977  23.151  1.00  0.00    -0.002 C 
HETATM    6  C   UNL     1       5.551  -4.630  23.999  1.00  0.00     0.003 C 
ENDROOT
BRANCH   1   7
HETATM    7  C   UNL     1       7.709  -4.800  25.427  1.00  0.00     0.021 C 
BRANCH   7   8
HETATM    8  C   UNL     1       7.598  -5.182  26.576  1.00  0.00     0.098 C 
HETATM    9  N   UNL     1       7.677  -6.017  27.432  1.00  0.00    -0.296 N 
ATOM     10  HN  UNL     1       8.508  -6.608  27.449  1.00  0.00     0.177 HD
BRANCH   9  11
HETATM   11  S   UNL     1       6.554  -6.263  28.557  1.00  0.00     0.226 S 
HETATM   12  C   UNL     1       5.073  -6.476  27.613  1.00  0.00     0.186 C 
HETATM   13  O   UNL     1       6.741  -7.480  29.301  1.00  0.00    -0.206 OA
HETATM   14  O   UNL     1       6.360  -5.123  29.406  1.00  0.00    -0.206 OA
ENDBRANCH   9  11
ENDBRANCH   7   8
ENDBRANCH   1   7
BRANCH   1  15
HETATM   15  C   UNL     1       7.710  -3.589  23.992  1.00  0.00    -0.061 C 
BRANCH  15  16
HETATM   16  C   UNL     1       8.145  -2.350  23.792  1.00  0.00     0.290 C 
HETATM   17  O   UNL     1       7.629  -1.771  22.958  1.00  0.00    -0.259 OA
HETATM   18  N   UNL     1       9.163  -2.033  24.588  1.00  0.00    -0.315 N 
ATOM     19  HN  UNL     1       9.555  -2.721  25.231  1.00  0.00     0.170 HD
BRANCH  18  20
HETATM   20  C   UNL     1       9.628  -0.879  24.532  1.00  0.00     0.057 A 
HETATM   21  C   UNL     1       9.374   0.330  25.044  1.00  0.00     0.117 A 
HETATM   22  N   UNL     1       9.615   1.504  25.153  1.00  0.00    -0.373 N 
HETATM   23  C   UNL     1      10.659   1.596  24.340  1.00  0.00     0.088 A 
ATOM     24  HN  UNL     1       9.149   2.222  25.709  1.00  0.00     0.164 HD
HETATM   25  C   UNL     1      11.227   0.660  23.714  1.00  0.00     0.026 A 
HETATM   26  C   UNL     1      10.960  -0.655  23.652  1.00  0.00    -0.033 A 
HETATM   27  C   UNL     1      11.631  -1.764  22.921  1.00  0.00     0.050 C 
ENDBRANCH  18  20
ENDBRANCH  15  16
ENDBRANCH   1  15
TORSDOF 6
ENDMDL
MODEL 5
REMARK VINA RESULT:    -6.411      2.676      2.820
REMARK INTER + INTRA:          -9.793
REMARK INTER:                  -9.057
REMARK INTRA:                  -0.736
REMARK UNBOUND:                -1.134
REMARK  6 active torsions:
REMARK  status: ('A' for Active; 'I' for Inactive)
REMARK    1  A    between atoms: S_2  and  N_5 
REMARK    2  A    between atoms: C_7  and  C_8 
REMARK    3  A    between atoms: C_8  and  C_9 
REMARK    4  A    between atoms: C_9  and  C_15 
REMARK    5  A    between atoms: C_15  and  C_16 
REMARK       I    between atoms: C_16  and  N_18 
REMARK    6  A    between atoms: N_18  and  C_20 
ROOT
HETATM    1  C   UNL     1       9.335  -1.584  24.279  1.00  0.00     0.076 C 
HETATM    2  C   UNL     1       9.951  -0.142  24.962  1.00  0.00     0.003 C 
HETATM    3  C   UNL     1      10.823   0.404  24.579  1.00  0.00    -0.002 C 
HETATM    4  C   UNL     1      11.699   0.104  23.588  1.00  0.00    -0.001 C 
HETATM    5  C   UNL     1      11.436  -1.188  22.993  1.00  0.00    -0.002 C 
HETATM    6  C   UNL     1      10.709  -1.881  23.154  1.00  0.00     0.003 C 
ENDROOT
BRANCH   1   7
HETATM    7  C   UNL     1       8.849  -2.578  24.821  1.00  0.00     0.021 C 
BRANCH   7   8
HETATM    8  C   UNL     1       8.219  -3.133  25.700  1.00  0.00     0.098 C 
HETATM    9  N   UNL     1       8.140  -3.758  26.720  1.00  0.00    -0.296 N 
ATOM     10  HN  UNL     1       8.744  -3.488  27.496  1.00  0.00     0.177 HD
BRANCH   9  11
HETATM   11  S   UNL     1       7.139  -4.998  26.940  1.00  0.00     0.226 S 
HETATM   12  C   UNL     1       5.748  -4.258  27.745  1.00  0.00     0.186 C 
HETATM   13  O   UNL     1       6.645  -5.565  25.713  1.00  0.00    -0.206 OA
HETATM   14  O   UNL     1       7.671  -5.990  27.830  1.00  0.00    -0.206 OA
ENDBRANCH   9  11
ENDBRANCH   7   8
ENDBRANCH   1   7
BRANCH   1  15
HETATM   15  C   UNL     1       8.420  -1.280  23.534  1.00  0.00    -0.061 C 
BRANCH  15  16
HETATM   16  C   UNL     1       7.405  -1.038  22.712  1.00  0.00     0.290 C 
HETATM   17  O   UNL     1       6.411  -1.515  22.997  1.00  0.00    -0.259 OA
HETATM   18  N   UNL     1       7.766  -0.310  21.658  1.00  0.00    -0.315 N 
ATOM     19  HN  UNL     1       8.739  -0.035  21.524  1.00  0.00     0.170 HD
BRANCH  18  20
HETATM   20  C   UNL     1       6.892   0.028  20.838  1.00  0.00     0.057 A 
HETATM   21  C   UNL     1       6.199  -0.515  19.831  1.00  0.00     0.117 A 
HETATM   22  N   UNL     1       5.387  -0.442  18.947  1.00  0.00    -0.373 N 
HETATM   23  C   UNL     1       5.031   0.829  19.073  1.00  0.00     0.088 A 
ATOM     24  HN  UNL     1       5.065  -1.153  18.289  1.00  0.00     0.164 HD
HETATM   25  C   UNL     1       5.426   1.653  19.942  1.00  0.00     0.026 A 
HETATM   26  C   UNL     1       6.304   1.524  20.950  1.00  0.00    -0.033 A 
HETATM   27  C   UNL     1       6.768   2.490  21.983  1.00  0.00     0.050 C 
ENDBRANCH  18  20
ENDBRANCH  15  16
ENDBRANCH   1  15
TORSDOF 6
ENDMDL
MODEL 6
REMARK VINA RESULT:    -6.381      2.515      6.120
REMARK INTER + INTRA:          -9.753
REMARK INTER:                  -8.638
REMARK INTRA:                  -1.115
REMARK UNBOUND:                -1.134
REMARK  6 active torsions:
REMARK  status: ('A' for Active; 'I' for Inactive)
REMARK    1  A    between atoms: S_2  and  N_5 
REMARK    2  A    between atoms: C_7  and  C_8 
REMARK    3  A    between atoms: C_8  and  C_9 
REMARK    4  A    between atoms: C_9  and  C_15 
REMARK    5  A    between atoms: C_15  and  C_16 
REMARK       I    between atoms: C_16  and  N_18 
REMARK    6  A    between atoms: N_18  and  C_20 
ROOT
HETATM    1  C   UNL     1       7.378   0.399  20.651  1.00  0.00     0.076 C 
HETATM    2  C   UNL     1       6.377   1.652  21.243  1.00  0.00     0.003 C 
HETATM    3  C   UNL     1       5.481   2.026  20.731  1.00  0.00    -0.002 C 
HETATM    4  C   UNL     1       4.959   1.729  19.515  1.00  0.00    -0.001 C 
HETATM    5  C   UNL     1       5.778   0.793  18.778  1.00  0.00    -0.002 C 
HETATM    6  C   UNL     1       6.636   0.301  19.013  1.00  0.00     0.003 C 
ENDROOT
BRANCH   1   7
HETATM    7  C   UNL     1       8.602   0.263  20.705  1.00  0.00     0.021 C 
BRANCH   7   8
HETATM    8  C   UNL     1       9.635  -0.027  21.276  1.00  0.00     0.098 C 
HETATM    9  N   UNL     1      10.501  -0.797  21.584  1.00  0.00    -0.296 N 
ATOM     10  HN  UNL     1      10.876  -1.410  20.860  1.00  0.00     0.177 HD
BRANCH   9  11
HETATM   11  S   UNL     1      11.108  -0.924  23.068  1.00  0.00     0.226 S 
HETATM   12  C   UNL     1      11.387   0.759  23.538  1.00  0.00     0.186 C 
HETATM   13  O   UNL     1      10.180  -1.465  24.025  1.00  0.00    -0.206 OA
HETATM   14  O   UNL     1      12.377  -1.592  23.093  1.00  0.00    -0.206 OA
ENDBRANCH   9  11
ENDBRANCH   7   8
ENDBRANCH   1   7
BRANCH   1  15
HETATM   15  C   UNL     1       7.027  -0.640  21.183  1.00  0.00    -0.061 C 
BRANCH  15  16
HETATM   16  C   UNL     1       6.721  -1.770  21.810  1.00  0.00     0.290 C 
HETATM   17  O   UNL     1       5.993  -2.457  21.268  1.00  0.00    -0.259 OA
HETATM   18  N   UNL     1       7.297  -1.860  23.007  1.00  0.00    -0.315 N 
ATOM     19  HN  UNL     1       7.865  -1.095  23.370  1.00  0.00     0.170 HD
BRANCH  18  20
HETATM   20  C   UNL     1       7.129  -2.898  23.674  1.00  0.00     0.057 A 
HETATM   21  C   UNL     1       7.646  -4.128  23.761  1.00  0.00     0.117 A 
HETATM   22  N   UNL     1       7.679  -5.229  24.245  1.00  0.00    -0.373 N 
HETATM   23  C   UNL     1       6.692  -5.118  25.124  1.00  0.00     0.088 A 
ATOM     24  HN  UNL     1       8.290  -6.020  24.039  1.00  0.00     0.164 HD
HETATM   25  C   UNL     1       6.001  -4.093  25.373  1.00  0.00     0.026 A 
HETATM   26  C   UNL     1       6.021  -2.860  24.844  1.00  0.00    -0.033 A 
HETATM   27  C   UNL     1       5.212  -1.646  25.139  1.00  0.00     0.050 C 
ENDBRANCH  18  20
ENDBRANCH  15  16
ENDBRANCH   1  15
TORSDOF 6
ENDMDL
MODEL 7
REMARK VINA RESULT:    -6.313      2.937      6.342
REMARK INTER + INTRA:          -9.661
REMARK INTER:                  -8.938
REMARK INTRA:                  -0.723
REMARK UNBOUND:                -1.134
REMARK  6 active torsions:
REMARK  status: ('A' for Active; 'I' for Inactive)
REMARK    1  A    between atoms: S_2  and  N_5 
REMARK    2  A    between atoms: C_7  and  C_8 
REMARK    3  A    between atoms: C_8  and  C_9 
REMARK    4  A    between atoms: C_9  and  C_15 
REMARK    5  A    between atoms: C_15  and  C_16 
REMARK       I    between atoms: C_16  and  N_18 
REMARK    6  A    between atoms: N_18  and  C_20 
ROOT
HETATM    1  C   UNL     1       8.345  -1.626  22.803  1.00  0.00     0.076 C 
HETATM    2  C   UNL     1       9.988  -1.850  22.385  1.00  0.00     0.003 C 
HETATM    3  C   UNL     1      10.835  -1.440  22.951  1.00  0.00    -0.002 C 
HETATM    4  C   UNL     1      10.874  -0.605  24.019  1.00  0.00    -0.001 C 
HETATM    5  C   UNL     1       9.557  -0.161  24.419  1.00  0.00    -0.002 C 
HETATM    6  C   UNL     1       8.626  -0.384  24.076  1.00  0.00     0.003 C 
ENDROOT
BRANCH   1   7
HETATM    7  C   UNL     1       7.356  -1.459  22.088  1.00  0.00     0.021 C 
BRANCH   7   8
HETATM    8  C   UNL     1       6.733  -0.879  21.220  1.00  0.00     0.098 C 
HETATM    9  N   UNL     1       5.975  -0.851  20.291  1.00  0.00    -0.296 N 
ATOM     10  HN  UNL     1       5.126  -1.413  20.350  1.00  0.00     0.177 HD
BRANCH   9  11
HETATM   11  S   UNL     1       6.214   0.017  18.959  1.00  0.00     0.226 S 
HETATM   12  C   UNL     1       5.165   1.422  19.196  1.00  0.00     0.186 C 
HETATM   13  O   UNL     1       7.554   0.526  18.835  1.00  0.00    -0.206 OA
HETATM   14  O   UNL     1       5.768  -0.654  17.772  1.00  0.00    -0.206 OA
ENDBRANCH   9  11
ENDBRANCH   7   8
ENDBRANCH   1   7
BRANCH   1  15
HETATM   15  C   UNL     1       7.987  -2.604  23.436  1.00  0.00    -0.061 C 
BRANCH  15  16
HETATM   16  C   UNL     1       7.683  -3.694  24.131  1.00  0.00     0.290 C 
HETATM   17  O   UNL     1       7.836  -4.685  23.592  1.00  0.00    -0.259 OA
HETATM   18  N   UNL     1       7.196  -3.410  25.336  1.00  0.00    -0.315 N 
ATOM     19  HN  UNL     1       7.051  -2.442  25.624  1.00  0.00     0.170 HD
BRANCH  18  20
HETATM   20  C   UNL     1       6.920  -4.350  26.106  1.00  0.00     0.057 A 
HETATM   21  C   UNL     1       7.542  -5.135  26.991  1.00  0.00     0.117 A 
HETATM   22  N   UNL     1       7.541  -6.036  27.789  1.00  0.00    -0.373 N 
HETATM   23  C   UNL     1       6.267  -6.398  27.719  1.00  0.00     0.088 A 
ATOM     24  HN  UNL     1       8.302  -6.413  28.355  1.00  0.00     0.164 HD
HETATM   25  C   UNL     1       5.355  -5.859  27.035  1.00  0.00     0.026 A 
HETATM   26  C   UNL     1       5.381  -4.819  26.185  1.00  0.00    -0.033 A 
HETATM   27  C   UNL     1       4.306  -4.176  25.382  1.00  0.00     0.050 C 
ENDBRANCH  18  20
ENDBRANCH  15  16
ENDBRANCH   1  15
TORSDOF 6
ENDMDL
MODEL 8
REMARK VINA RESULT:    -6.312     14.951     16.269
REMARK INTER + INTRA:          -9.660
REMARK INTER:                  -8.813
REMARK INTRA:                  -0.847
REMARK UNBOUND:                -1.134
REMARK  6 active torsions:
REMARK  status: ('A' for Active; 'I' for Inactive)
REMARK    1  A    between atoms: S_2  and  N_5 
REMARK    2  A    between atoms: C_7  and  C_8 
REMARK    3  A    between atoms: C_8  and  C_9 
REMARK    4  A    between atoms: C_9  and  C_15 
REMARK    5  A    between atoms: C_15  and  C_16 
REMARK       I    between atoms: C_16  and  N_18 
REMARK    6  A    between atoms: N_18  and  C_20 
ROOT
HETATM    1  C   UNL     1      23.255  -1.698  23.565  1.00  0.00     0.076 C 
HETATM    2  C   UNL     1      21.873  -1.244  24.464  1.00  0.00     0.003 C 
HETATM    3  C   UNL     1      21.689  -0.234  24.852  1.00  0.00    -0.002 C 
HETATM    4  C   UNL     1      22.465   0.879  24.848  1.00  0.00    -0.001 C 
HETATM    5  C   UNL     1      23.768   0.640  24.270  1.00  0.00    -0.002 C 
HETATM    6  C   UNL     1      24.188  -0.183  23.843  1.00  0.00     0.003 C 
ENDROOT
BRANCH   1   7
HETATM    7  C   UNL     1      23.903  -2.747  23.575  1.00  0.00     0.021 C 
BRANCH   7   8
HETATM    8  C   UNL     1      24.162  -3.855  24.002  1.00  0.00     0.098 C 
HETATM    9  N   UNL     1      23.922  -5.020  24.152  1.00  0.00    -0.296 N 
ATOM     10  HN  UNL     1      23.579  -5.546  23.349  1.00  0.00     0.177 HD
BRANCH   9  11
HETATM   11  S   UNL     1      24.108  -5.805  25.543  1.00  0.00     0.226 S 
HETATM   12  C   UNL     1      25.825  -5.585  25.909  1.00  0.00     0.186 C 
HETATM   13  O   UNL     1      23.380  -5.218  26.638  1.00  0.00    -0.206 OA
HETATM   14  O   UNL     1      23.874  -7.216  25.421  1.00  0.00    -0.206 OA
ENDBRANCH   9  11
ENDBRANCH   7   8
ENDBRANCH   1   7
BRANCH   1  15
HETATM   15  C   UNL     1      22.965  -1.640  22.383  1.00  0.00    -0.061 C 
BRANCH  15  16
HETATM   16  C   UNL     1      22.726  -1.621  21.077  1.00  0.00     0.290 C 
HETATM   17  O   UNL     1      21.652  -1.837  20.766  1.00  0.00    -0.259 OA
HETATM   18  N   UNL     1      23.826  -1.402  20.361  1.00  0.00    -0.315 N 
ATOM     19  HN  UNL     1      24.734  -1.310  20.817  1.00  0.00     0.170 HD
BRANCH  18  20
HETATM   20  C   UNL     1      23.725  -1.311  19.123  1.00  0.00     0.057 A 
HETATM   21  C   UNL     1      23.422  -0.385  18.208  1.00  0.00     0.117 A 
HETATM   22  N   UNL     1      23.249  -0.042  17.067  1.00  0.00    -0.373 N 
HETATM   23  C   UNL     1      23.489  -1.191  16.449  1.00  0.00     0.088 A 
ATOM     24  HN  UNL     1      22.992   0.869  16.686  1.00  0.00     0.164 HD
HETATM   25  C   UNL     1      23.856  -2.279  16.970  1.00  0.00     0.026 A 
HETATM   26  C   UNL     1      24.086  -2.616  18.249  1.00  0.00    -0.033 A 
HETATM   27  C   UNL     1      24.526  -3.896  18.867  1.00  0.00     0.050 C 
ENDBRANCH  18  20
ENDBRANCH  15  16
ENDBRANCH   1  15
TORSDOF 6
ENDMDL
MODEL 9
REMARK VINA RESULT:    -5.952      3.892      5.903
REMARK INTER + INTRA:          -9.174
REMARK INTER:                  -8.535
REMARK INTRA:                  -0.638
REMARK UNBOUND:                -1.134
REMARK  6 active torsions:
REMARK  status: ('A' for Active; 'I' for Inactive)
REMARK    1  A    between atoms: S_2  and  N_5 
REMARK    2  A    between atoms: C_7  and  C_8 
REMARK    3  A    between atoms: C_8  and  C_9 
REMARK    4  A    between atoms: C_9  and  C_15 
REMARK    5  A    between atoms: C_15  and  C_16 
REMARK       I    between atoms: C_16  and  N_18 
REMARK    6  A    between atoms: N_18  and  C_20 
ROOT
HETATM    1  C   UNL     1       8.778   0.025  22.642  1.00  0.00     0.076 C 
HETATM    2  C   UNL     1       7.814  -0.530  23.940  1.00  0.00     0.003 C 
HETATM    3  C   UNL     1       8.026  -1.431  24.531  1.00  0.00    -0.002 C 
HETATM    4  C   UNL     1       8.976  -2.389  24.388  1.00  0.00    -0.001 C 
HETATM    5  C   UNL     1       9.799  -2.178  23.218  1.00  0.00    -0.002 C 
HETATM    6  C   UNL     1       9.818  -1.440  22.518  1.00  0.00     0.003 C 
ENDROOT
BRANCH   1   7
HETATM    7  C   UNL     1       8.453   0.555  21.578  1.00  0.00     0.021 C 
BRANCH   7   8
HETATM    8  C   UNL     1       7.635   0.923  20.757  1.00  0.00     0.098 C 
HETATM    9  N   UNL     1       6.594   1.428  20.444  1.00  0.00    -0.296 N 
ATOM     10  HN  UNL     1       6.317   2.287  20.919  1.00  0.00     0.177 HD
BRANCH   9  11
HETATM   11  S   UNL     1       5.607   0.835  19.321  1.00  0.00     0.226 S 
HETATM   12  C   UNL     1       4.117   1.759  19.562  1.00  0.00     0.186 C 
HETATM   13  O   UNL     1       6.039   1.103  17.975  1.00  0.00    -0.206 OA
HETATM   14  O   UNL     1       5.291  -0.548  19.533  1.00  0.00    -0.206 OA
ENDBRANCH   9  11
ENDBRANCH   7   8
ENDBRANCH   1   7
BRANCH   1  15
HETATM   15  C   UNL     1       9.535   0.874  23.078  1.00  0.00    -0.061 C 
BRANCH  15  16
HETATM   16  C   UNL     1      10.295   1.824  23.611  1.00  0.00     0.290 C 
HETATM   17  O   UNL     1      11.033   1.481  24.408  1.00  0.00    -0.259 OA
HETATM   18  N   UNL     1      10.004   3.033  23.138  1.00  0.00    -0.315 N 
ATOM     19  HN  UNL     1       9.241   3.163  22.474  1.00  0.00     0.170 HD
BRANCH  18  20
HETATM   20  C   UNL     1      10.683   4.004  23.522  1.00  0.00     0.057 A 
HETATM   21  C   UNL     1      11.934   4.462  23.405  1.00  0.00     0.117 A 
HETATM   22  N   UNL     1      12.790   5.272  23.646  1.00  0.00    -0.373 N 
HETATM   23  C   UNL     1      12.101   6.106  24.414  1.00  0.00     0.088 A 
ATOM     24  HN  UNL     1      13.765   5.307  23.346  1.00  0.00     0.164 HD
HETATM   25  C   UNL     1      10.877   6.039  24.711  1.00  0.00     0.026 A 
HETATM   26  C   UNL     1       9.934   5.141  24.384  1.00  0.00    -0.033 A 
HETATM   27  C   UNL     1       8.488   5.062  24.726  1.00  0.00     0.050 C 
ENDBRANCH  18  20
ENDBRANCH  15  16
ENDBRANCH   1  15
TORSDOF 6
ENDMDL
