REMARK  6 active torsions:
REMARK  status: ('A' for Active; 'I' for Inactive)
REMARK    1  A    between atoms: S_2  and  N_5 
REMARK    2  A    between atoms: C_7  and  C_8 
REMARK    3  A    between atoms: C_8  and  C_9 
REMARK    4  A    between atoms: C_9  and  C_15 
REMARK    5  A    between atoms: C_15  and  C_16 
REMARK       I    between atoms: C_16  and  N_18 
REMARK    6  A    between atoms: N_18  and  C_20 
ROOT
HETATM    1  C   UNL     1      10.283  -1.161  23.262  1.00  0.00     0.076 C 
HETATM    2  C   UNL     1      11.012  -0.004  24.288  1.00  0.00     0.003 C 
HETATM    3  C   UNL     1      12.066   0.298  24.234  1.00  0.00    -0.002 C 
HETATM    4  C   UNL     1      13.091  -0.169  23.478  1.00  0.00    -0.001 C 
HETATM    5  C   UNL     1      12.699  -1.289  22.651  1.00  0.00    -0.002 C 
HETATM    6  C   UNL     1      11.807  -1.757  22.510  1.00  0.00     0.003 C 
ENDROOT
BRANCH   1   7
HETATM    7  C   UNL     1       9.425  -2.012  23.503  1.00  0.00     0.021 C 
BRANCH   7   8
HETATM    8  C   UNL     1       8.985  -2.960  24.124  1.00  0.00     0.098 C 
HETATM    9  N   UNL     1       8.100  -3.556  24.671  1.00  0.00    -0.296 N 
ATOM     10  HN  UNL     1       7.194  -3.601  24.205  1.00  0.00     0.177 HD
BRANCH   9  11
HETATM   11  S   UNL     1       8.253  -4.289  26.094  1.00  0.00     0.226 S 
HETATM   12  C   UNL     1       6.619  -4.883  26.423  1.00  0.00     0.186 C 
HETATM   13  O   UNL     1       9.107  -5.447  26.057  1.00  0.00    -0.206 OA
HETATM   14  O   UNL     1       8.600  -3.383  27.151  1.00  0.00    -0.206 OA
ENDBRANCH   9  11
ENDBRANCH   7   8
ENDBRANCH   1   7
BRANCH   1  15
HETATM   15  C   UNL     1       9.736  -0.560  22.354  1.00  0.00    -0.061 C 
BRANCH  15  16
HETATM   16  C   UNL     1       9.062   0.055  21.389  1.00  0.00     0.290 C 
HETATM   17  O   UNL     1       9.529   1.014  20.991  1.00  0.00    -0.259 OA
HETATM   18  N   UNL     1       7.914  -0.554  21.102  1.00  0.00    -0.315 N 
ATOM     19  HN  UNL     1       7.614  -1.374  21.629  1.00  0.00     0.170 HD
BRANCH  18  20
HETATM   20  C   UNL     1       7.213  -0.102  20.177  1.00  0.00     0.057 A 
HETATM   21  C   UNL     1       7.244  -0.024  18.843  1.00  0.00     0.117 A 
HETATM   22  N   UNL     1       6.770   0.324  17.793  1.00  0.00    -0.373 N 
HETATM   23  C   UNL     1       5.672   0.926  18.230  1.00  0.00     0.088 A 
ATOM     24  HN  UNL     1       7.114   0.194  16.841  1.00  0.00     0.164 HD
HETATM   25  C   UNL     1       5.269   1.012  19.422  1.00  0.00     0.026 A 
HETATM   26  C   UNL     1       5.802   0.569  20.572  1.00  0.00    -0.033 A 
HETATM   27  C   UNL     1       5.327   0.662  21.979  1.00  0.00     0.050 C 
ENDBRANCH  18  20
ENDBRANCH  15  16
ENDBRANCH   1  15
TORSDOF 6
