stable:False satoms:20 tatoms:24 sratio:0.8333333333333334
  -OEChem-07092417363D

 24 25  0     1  0  0  0  0  0999 V2000
    8.1438   -3.9755   25.9639 C   0  0  0  0  0  0  0  0  0  0  0  0
    7.0884   -3.8844   25.7378 H   0  0  0  0  0  0  0  0  0  0  0  0
    8.4412   -5.0187   26.0188 H   0  0  0  0  0  0  0  0  0  0  0  0
    8.3587   -3.4772   26.9168 H   0  0  0  0  0  0  0  0  0  0  0  0
    8.3514   -2.7494   24.0074 N   0  0  0  0  0  0  0  0  0  0  0  0
    8.9466   -3.3429   24.9487 O   0  0  0  0  0  0  0  0  0  0  0  0
    8.6945   -1.5982   23.5628 N   0  0  0  0  0  0  0  0  0  0  0  0
    9.4687   -0.8973   22.8272 C   0  0  0  0  0  0  0  0  0  0  0  0
   11.4304   -1.2639   24.6742 H   0  0  0  0  0  0  0  0  0  0  0  0
   11.7820   -1.1616   23.6527 C   0  0  0  0  0  0  0  0  0  0  0  0
   11.3114    0.1698   21.9491 O   0  0  0  0  0  0  0  0  0  0  0  0
   12.7075   -0.5859   23.5832 H   0  0  0  0  0  0  0  0  0  0  0  0
   11.9540   -2.1195   23.1652 H   0  0  0  0  0  0  0  0  0  0  0  0
   10.7525   -0.5231   22.9217 N   0  0  1  0  0  0  0  0  0  0  0  0
    9.0496   -0.1740   21.5953 C   0  0  0  0  0  0  0  0  0  0  0  0
   10.0916    0.4246   21.1106 O   0  0  0  0  0  0  0  0  0  0  0  0
    7.8585    0.0031   20.8663 C   0  0  0  0  0  0  0  0  0  0  0  0
    6.4915    0.0499   21.0637 C   0  0  0  0  0  0  0  0  0  0  0  0
    8.2049    0.5369   19.2461 S   0  0  0  0  0  0  0  0  0  0  0  0
    6.2830   -0.1279   18.0467 H   0  0  0  0  0  0  0  0  0  0  0  0
    6.4007    0.5952   18.8612 C   0  0  0  0  0  0  0  0  0  0  0  0
    6.0594    1.5698   18.4970 H   0  0  0  0  0  0  0  0  0  0  0  0
    5.7161    0.3255   20.0535 N   0  0  0  0  0  0  0  0  0  0  0  0
    5.9977   -0.0654   22.0269 H   0  0  0  0  0  0  0  0  0  0  0  0
 20 21  1  0  0  0  0
 21 22  1  0  0  0  0
 19 21  1  0  0  0  0
 21 23  1  0  0  0  0
 17 19  1  0  0  0  0
 18 23  1  0  0  0  0
 17 18  2  0  0  0  0
 15 17  1  0  0  0  0
 18 24  1  0  0  0  0
 15 16  1  0  0  0  0
 11 16  1  0  0  0  0
  8 15  2  0  0  0  0
 11 14  1  0  0  0  0
  8 14  1  0  0  0  0
  7  8  1  0  0  0  0
 10 14  1  0  0  0  0
 10 13  1  0  0  0  0
  5  7  2  3  0  0  0
 10 12  1  0  0  0  0
  9 10  1  0  0  0  0
  5  6  1  0  0  0  0
  1  6  1  0  0  0  0
  1  2  1  0  0  0  0
  1  3  1  0  0  0  0
  1  4  1  0  0  0  0
M  END
> <Shapegauss>
-163.826416

$$$$
