stable:False satoms:20 tatoms:24 sratio:0.8333333333333334
  -OEChem-08062401013D

 26 27  0     1  0  0  0  0  0999 V2000
  -13.7065   -2.0166  -23.1636 C   0  0  0  0  0  0  0  0  0  0  0  0
  -14.2532   -1.2523  -22.6249 H   0  0  0  0  0  0  0  0  0  0  0  0
  -14.3571   -2.5479  -23.8522 H   0  0  0  0  0  0  0  0  0  0  0  0
  -13.2647   -2.7226  -22.4502 H   0  0  0  0  0  0  0  0  0  0  0  0
  -12.4407   -0.1962  -23.8403 N   0  0  0  0  0  0  0  0  0  0  0  0
  -12.6321   -1.4403  -23.9309 O   0  0  0  0  0  0  0  0  0  0  0  0
  -11.2833    0.3380  -23.7147 N   0  0  0  0  0  0  0  0  0  0  0  0
  -10.1964    0.7309  -24.2587 C   0  0  0  0  0  0  0  0  0  0  0  0
   -9.4602   -1.8762  -24.4928 H   0  0  0  0  0  0  0  0  0  0  0  0
   -9.0779   -1.2248  -25.2720 C   0  0  0  0  0  0  0  0  0  0  0  0
   -8.1609    0.7880  -25.3352 O   0  0  0  0  0  0  0  0  0  0  0  0
   -8.0563   -1.4762  -25.5653 H   0  0  0  0  0  0  0  0  0  0  0  0
   -9.6898   -1.2355  -26.1721 H   0  0  0  0  0  0  0  0  0  0  0  0
   -9.1318    0.0972  -24.7708 N   0  0  1  0  0  0  0  0  0  0  0  0
   -9.7705    2.1521  -24.3825 C   0  0  0  0  0  0  0  0  0  0  0  0
   -8.6243    2.1735  -24.9865 O   0  0  0  0  0  0  0  0  0  0  0  0
  -10.2875    3.4115  -24.0248 C   0  0  0  0  0  0  0  0  0  0  0  0
  -11.0945    3.9928  -23.0652 C   0  0  0  0  0  0  0  0  0  0  0  0
   -9.5149    4.6741  -24.9406 S   0  0  0  0  0  0  0  0  0  0  0  0
  -11.0996    6.4230  -24.8740 H   0  0  0  0  0  0  0  0  0  0  0  0
  -10.5267    5.9486  -24.0697 C   0  0  0  0  0  0  0  0  0  0  0  0
   -9.9301    6.7249  -23.5794 H   0  0  0  0  0  0  0  0  0  0  0  0
  -11.2577    5.2855  -23.0753 N   0  3  0  0  0  0  0  0  0  0  0  0
  -11.5680    3.4583  -22.2436 H   0  0  0  0  0  0  0  0  0  0  0  0
  -10.9746    5.6443  -22.1859 H   0  0  0  0  0  0  0  0  0  0  0  0
  -12.2285    5.4779  -23.2187 H   0  0  0  0  0  0  0  0  0  0  0  0
 20 21  1  0  0  0  0
 21 22  1  0  0  0  0
 19 21  1  0  0  0  0
 21 23  1  0  0  0  0
 17 19  1  0  0  0  0
 18 23  1  0  0  0  0
 17 18  2  0  0  0  0
 15 17  1  0  0  0  0
 18 24  1  0  0  0  0
 15 16  1  0  0  0  0
 11 16  1  0  0  0  0
  8 15  2  0  0  0  0
 11 14  1  0  0  0  0
  8 14  1  0  0  0  0
  7  8  1  0  0  0  0
 10 14  1  0  0  0  0
 10 13  1  0  0  0  0
  5  7  2  3  0  0  0
 10 12  1  0  0  0  0
  9 10  1  0  0  0  0
  5  6  1  0  0  0  0
  1  6  1  0  0  0  0
  1  2  1  0  0  0  0
  1  3  1  0  0  0  0
  1  4  1  0  0  0  0
 23 25  1  0  0  0  0
 23 26  1  0  0  0  0
M  CHG  1  23   1
M  END
> <Chemgauss4>
-6.433723

$$$$
