stable:False satoms:20 tatoms:24 sratio:0.8333333333333334
  -OEChem-08062401013D

 26 27  0     1  0  0  0  0  0999 V2000
   11.3701    5.9510   23.8119 C   0  0  0  0  0  0  0  0  0  0  0  0
   10.6983    5.9351   22.9625 H   0  0  0  0  0  0  0  0  0  0  0  0
   10.9816    6.5854   24.6033 H   0  0  0  0  0  0  0  0  0  0  0  0
   12.3545    6.3147   23.4937 H   0  0  0  0  0  0  0  0  0  0  0  0
   10.9736    3.6672   23.7741 N   0  0  0  0  0  0  0  0  0  0  0  0
   11.5472    4.6289   24.3561 O   0  0  0  0  0  0  0  0  0  0  0  0
   11.5383    2.5431   23.5331 N   0  0  0  0  0  0  0  0  0  0  0  0
   11.9096    1.3948   23.9518 C   0  0  0  0  0  0  0  0  0  0  0  0
   13.9234    2.6236   25.3041 H   0  0  0  0  0  0  0  0  0  0  0  0
   13.5485    1.7189   25.7716 C   0  0  0  0  0  0  0  0  0  0  0  0
   12.9910   -0.3041   25.0696 O   0  0  0  0  0  0  0  0  0  0  0  0
   14.3421    1.1209   26.2248 H   0  0  0  0  0  0  0  0  0  0  0  0
   12.8055    1.9161   26.5423 H   0  0  0  0  0  0  0  0  0  0  0  0
   12.8889    0.9747   24.7652 N   0  0  1  0  0  0  0  0  0  0  0  0
   11.3281    0.0975   23.5099 C   0  0  0  0  0  0  0  0  0  0  0  0
   11.9442   -0.8513   24.1419 O   0  0  0  0  0  0  0  0  0  0  0  0
   10.3207   -0.3242   22.6218 C   0  0  0  0  0  0  0  0  0  0  0  0
    9.7114    0.0693   21.4455 C   0  0  0  0  0  0  0  0  0  0  0  0
    9.8180   -1.9491   22.9917 S   0  0  0  0  0  0  0  0  0  0  0  0
    7.6436   -2.0524   22.0778 H   0  0  0  0  0  0  0  0  0  0  0  0
    8.6156   -1.9142   21.5918 C   0  0  0  0  0  0  0  0  0  0  0  0
    8.7514   -2.7301   20.8743 H   0  0  0  0  0  0  0  0  0  0  0  0
    8.8169   -0.7093   20.9057 N   0  3  0  0  0  0  0  0  0  0  0  0
    9.9645    0.9666   20.8836 H   0  0  0  0  0  0  0  0  0  0  0  0
    9.1093   -0.9241   19.9739 H   0  0  0  0  0  0  0  0  0  0  0  0
    7.9477   -0.2158   20.8770 H   0  0  0  0  0  0  0  0  0  0  0  0
 20 21  1  0  0  0  0
 21 22  1  0  0  0  0
 19 21  1  0  0  0  0
 21 23  1  0  0  0  0
 17 19  1  0  0  0  0
 18 23  1  0  0  0  0
 17 18  2  0  0  0  0
 15 17  1  0  0  0  0
 18 24  1  0  0  0  0
 15 16  1  0  0  0  0
 11 16  1  0  0  0  0
  8 15  2  0  0  0  0
 11 14  1  0  0  0  0
  8 14  1  0  0  0  0
  7  8  1  0  0  0  0
 10 14  1  0  0  0  0
 10 13  1  0  0  0  0
  5  7  2  3  0  0  0
 10 12  1  0  0  0  0
  9 10  1  0  0  0  0
  5  6  1  0  0  0  0
  1  6  1  0  0  0  0
  1  2  1  0  0  0  0
  1  3  1  0  0  0  0
  1  4  1  0  0  0  0
 23 25  1  0  0  0  0
 23 26  1  0  0  0  0
M  CHG  1  23   1
M  END
> <Chemgauss4>
-6.341620

$$$$
